version 3
run General-0-20220307-14:22:05-295298
attr configname General
attr datetime 20220307-14:22:05
attr datetimef 20220307-142205
attr experiment General
attr inifile omnetpp.ini
attr iterationvars ""
attr iterationvarsd ""
attr iterationvarsf ""
attr measurement ""
attr network syntetictracegenerator.simulations.Villarosa_gnb_only_test_non_mesh.DummyScenario
attr processid 295298
attr repetition 0
attr replication #0
attr resultdir results
attr runnumber 0
attr seedset 0
config image-path ../../images:../../../../../Documents/WORKSPACE/software/workspace/inet4.3/images:../../../../../Documents/WORKSPACE/software/workspace/Simu5G/images:../../../../../Documents/WORKSPACE/software/workspace/veins/subprojects/veins_inet/images:../../../../../Documents/WORKSPACE/software/workspace/veins/images
config cmdenv-express-mode true
config cmdenv-autoflush true
config image-path ../../images
config network syntetictracegenerator.simulations.Villarosa_gnb_only_test_non_mesh.DummyScenario
config debug-on-errors false
config print-undisposed false
config num-rngs 3
config repeat 15
config seed-set 0
config output-scalar-file results/General/0.sca
config output-vector-file results/General/0.vec
config **.routingRecorder.enabled false
config **.scalar-recording false
config **.vector-recording false
config *.playgroundSizeX 20000m
config *.playgroundSizeY 20000m
config *.playgroundSizeZ 50m
config *.veinsManager.host "\"localhost\""
config *.veinsManager.moduleType "\"simu5g.nodes.cars.NRCar\""
config *.veinsManager.moduleName "\"car\""
config *.veinsManager.launchConfig "xmldoc(\"heterogeneous.launchd.xml\")"
config *.veinsManager.updateInterval 0.1s
config *.car[*].mobilityType "\"VeinsInetMobility\""
config **.numBands 25
config **.ueTxPower 26
config **.eNodeBTxPower 46
config *.car[*].cellularNic.nrPhy.dynamicCellAssociation true
config *.car[*].masterId 0
config *.car[*].macCellId 0
config *.car[*].nrMasterId 1
config *.car[*].nrMacCellId 1
config **.gNodeB1.macCellId 1
config **.gNodeB1.macNodeId 1
config **.gNodeB2.macCellId 2
config **.gNodeB2.macNodeId 2
config *.car[*].cellularNic.nrPhy.enableHandover true
config *.gNodeB*.cellularNic.phy.enableHandover true
config *.gNodeB*.cellularNic.phy.handoverLatency 50ms
config *.gNodeB*.cellInfo.broadcastMessageInterval 1s
config *.gNodeB2.numX2Apps 2
config *.gNodeB*.numX2Apps 1
config *.gNodeB*.x2App[*].server.localPort "5000 + ancestorIndex(1)"
config *.gNodeB1.x2App[0].client.connectAddress "\"gNodeB2%x2ppp0\""
config *.gNodeB2.x2App[0].client.connectAddress "\"gNodeB1%x2ppp0\""
config *.gNodeB2.x2App[1].client.connectAddress "\"gNodeB3%x2ppp0\""
config *.gNodeB3.x2App[0].client.connectAddress "\"gNodeB2%x2ppp1\""
config **.sctp.nagleEnabled false
config **.sctp.enableHeartbeats false

par DummyScenario.server.pppg$o[0].channel typename "\"inet.node.ethernet.Eth10G\""
par DummyScenario.server.pppg$o[0].channel disabled false
par DummyScenario.server.pppg$o[0].channel delay 5e-08s
attr unit s
par DummyScenario.server.pppg$o[0].channel datarate 1e+10bps
attr unit bps
par DummyScenario.server.pppg$o[0].channel ber 0
par DummyScenario.server.pppg$o[0].channel per 0
par DummyScenario.server.pppg$o[0].channel length 10m
attr unit m
par DummyScenario.router.pppg$o[0].channel typename "\"inet.node.ethernet.Eth10G\""
par DummyScenario.router.pppg$o[0].channel disabled false
par DummyScenario.router.pppg$o[0].channel delay 5e-08s
attr unit s
par DummyScenario.router.pppg$o[0].channel datarate 1e+10bps
attr unit bps
par DummyScenario.router.pppg$o[0].channel ber 0
par DummyScenario.router.pppg$o[0].channel per 0
par DummyScenario.router.pppg$o[0].channel length 10m
attr unit m
par DummyScenario.router.pppg$o[1].channel typename "\"inet.node.ethernet.Eth10G\""
par DummyScenario.router.pppg$o[1].channel disabled false
par DummyScenario.router.pppg$o[1].channel delay 5e-08s
attr unit s
par DummyScenario.router.pppg$o[1].channel datarate 1e+10bps
attr unit bps
par DummyScenario.router.pppg$o[1].channel ber 0
par DummyScenario.router.pppg$o[1].channel per 0
par DummyScenario.router.pppg$o[1].channel length 10m
attr unit m
par DummyScenario.upf.filterGate$o.channel typename "\"inet.node.ethernet.Eth10G\""
par DummyScenario.upf.filterGate$o.channel disabled false
par DummyScenario.upf.filterGate$o.channel delay 5e-08s
attr unit s
par DummyScenario.upf.filterGate$o.channel datarate 1e+10bps
attr unit bps
par DummyScenario.upf.filterGate$o.channel ber 0
par DummyScenario.upf.filterGate$o.channel per 0
par DummyScenario.upf.filterGate$o.channel length 10m
attr unit m
par DummyScenario.upf.pppg$o[0].channel typename "\"inet.node.ethernet.Eth10G\""
par DummyScenario.upf.pppg$o[0].channel disabled false
par DummyScenario.upf.pppg$o[0].channel delay 5e-08s
attr unit s
par DummyScenario.upf.pppg$o[0].channel datarate 1e+10bps
attr unit bps
par DummyScenario.upf.pppg$o[0].channel ber 0
par DummyScenario.upf.pppg$o[0].channel per 0
par DummyScenario.upf.pppg$o[0].channel length 10m
attr unit m
par DummyScenario.gNodeB1.ppp$o.channel typename "\"inet.node.ethernet.Eth10G\""
par DummyScenario.gNodeB1.ppp$o.channel disabled false
par DummyScenario.gNodeB1.ppp$o.channel delay 5e-08s
attr unit s
par DummyScenario.gNodeB1.ppp$o.channel datarate 1e+10bps
attr unit bps
par DummyScenario.gNodeB1.ppp$o.channel ber 0
par DummyScenario.gNodeB1.ppp$o.channel per 0
par DummyScenario.gNodeB1.ppp$o.channel length 10m
attr unit m
par DummyScenario.upf.pppg$o[1].channel typename "\"inet.node.ethernet.Eth10G\""
par DummyScenario.upf.pppg$o[1].channel disabled false
par DummyScenario.upf.pppg$o[1].channel delay 5e-08s
attr unit s
par DummyScenario.upf.pppg$o[1].channel datarate 1e+10bps
attr unit bps
par DummyScenario.upf.pppg$o[1].channel ber 0
par DummyScenario.upf.pppg$o[1].channel per 0
par DummyScenario.upf.pppg$o[1].channel length 10m
attr unit m
par DummyScenario.gNodeB2.ppp$o.channel typename "\"inet.node.ethernet.Eth10G\""
par DummyScenario.gNodeB2.ppp$o.channel disabled false
par DummyScenario.gNodeB2.ppp$o.channel delay 5e-08s
attr unit s
par DummyScenario.gNodeB2.ppp$o.channel datarate 1e+10bps
attr unit bps
par DummyScenario.gNodeB2.ppp$o.channel ber 0
par DummyScenario.gNodeB2.ppp$o.channel per 0
par DummyScenario.gNodeB2.ppp$o.channel length 10m
attr unit m
par DummyScenario.upf.pppg$o[2].channel typename "\"inet.node.ethernet.Eth10G\""
par DummyScenario.upf.pppg$o[2].channel disabled false
par DummyScenario.upf.pppg$o[2].channel delay 5e-08s
attr unit s
par DummyScenario.upf.pppg$o[2].channel datarate 1e+10bps
attr unit bps
par DummyScenario.upf.pppg$o[2].channel ber 0
par DummyScenario.upf.pppg$o[2].channel per 0
par DummyScenario.upf.pppg$o[2].channel length 10m
attr unit m
par DummyScenario.gNodeB3.ppp$o.channel typename "\"inet.node.ethernet.Eth10G\""
par DummyScenario.gNodeB3.ppp$o.channel disabled false
par DummyScenario.gNodeB3.ppp$o.channel delay 5e-08s
attr unit s
par DummyScenario.gNodeB3.ppp$o.channel datarate 1e+10bps
attr unit bps
par DummyScenario.gNodeB3.ppp$o.channel ber 0
par DummyScenario.gNodeB3.ppp$o.channel per 0
par DummyScenario.gNodeB3.ppp$o.channel length 10m
attr unit m
par DummyScenario.gNodeB1.x2$o[0].channel typename "\"inet.node.ethernet.Eth10G\""
par DummyScenario.gNodeB1.x2$o[0].channel disabled false
par DummyScenario.gNodeB1.x2$o[0].channel delay 5e-08s
attr unit s
par DummyScenario.gNodeB1.x2$o[0].channel datarate 1e+10bps
attr unit bps
par DummyScenario.gNodeB1.x2$o[0].channel ber 0
par DummyScenario.gNodeB1.x2$o[0].channel per 0
par DummyScenario.gNodeB1.x2$o[0].channel length 10m
attr unit m
par DummyScenario.gNodeB2.x2$o[0].channel typename "\"inet.node.ethernet.Eth10G\""
par DummyScenario.gNodeB2.x2$o[0].channel disabled false
par DummyScenario.gNodeB2.x2$o[0].channel delay 5e-08s
attr unit s
par DummyScenario.gNodeB2.x2$o[0].channel datarate 1e+10bps
attr unit bps
par DummyScenario.gNodeB2.x2$o[0].channel ber 0
par DummyScenario.gNodeB2.x2$o[0].channel per 0
par DummyScenario.gNodeB2.x2$o[0].channel length 10m
attr unit m
par DummyScenario.gNodeB2.x2$o[1].channel typename "\"inet.node.ethernet.Eth10G\""
par DummyScenario.gNodeB2.x2$o[1].channel disabled false
par DummyScenario.gNodeB2.x2$o[1].channel delay 5e-08s
attr unit s
par DummyScenario.gNodeB2.x2$o[1].channel datarate 1e+10bps
attr unit bps
par DummyScenario.gNodeB2.x2$o[1].channel ber 0
par DummyScenario.gNodeB2.x2$o[1].channel per 0
par DummyScenario.gNodeB2.x2$o[1].channel length 10m
attr unit m
par DummyScenario.gNodeB3.x2$o[0].channel typename "\"inet.node.ethernet.Eth10G\""
par DummyScenario.gNodeB3.x2$o[0].channel disabled false
par DummyScenario.gNodeB3.x2$o[0].channel delay 5e-08s
attr unit s
par DummyScenario.gNodeB3.x2$o[0].channel datarate 1e+10bps
attr unit bps
par DummyScenario.gNodeB3.x2$o[0].channel ber 0
par DummyScenario.gNodeB3.x2$o[0].channel per 0
par DummyScenario.gNodeB3.x2$o[0].channel length 10m
attr unit m
par DummyScenario.routingRecorder typename "\"inet.networklayer.ipv4.RoutingTableRecorder\""
par DummyScenario.routingRecorder enabled false
par DummyScenario.configurator typename "\"inet.networklayer.configurator.ipv4.Ipv4NetworkConfigurator\""
par DummyScenario.configurator minLinkWeight 0.001
par DummyScenario.configurator configureIsolatedNetworksSeparatly false
par DummyScenario.configurator config "<config>...</config> at /home/skela/git/SyntheticTraceGenerator/SynteticTraceGenerator/simulations/Villarosa_gnb_only_test_non_mesh/demo.xml:1"
par DummyScenario.configurator assignAddresses true
par DummyScenario.configurator assignUniqueAddresses true
par DummyScenario.configurator assignDisjunctSubnetAddresses true
par DummyScenario.configurator addStaticRoutes true
par DummyScenario.configurator addDefaultRoutes true
par DummyScenario.configurator addSubnetRoutes true
par DummyScenario.configurator addDirectRoutes true
par DummyScenario.configurator optimizeRoutes true
par DummyScenario.configurator dumpTopology false
par DummyScenario.configurator dumpLinks false
par DummyScenario.configurator dumpAddresses false
par DummyScenario.configurator dumpRoutes false
par DummyScenario.configurator dumpConfig "\"\""
par DummyScenario.veinsManager typename "\"org.car2x.veins.subprojects.veins_inet.VeinsInetManager\""
par DummyScenario.veinsManager connectAt 0s
attr unit s
par DummyScenario.veinsManager firstStepAt -1s
attr unit s
par DummyScenario.veinsManager updateInterval 0.1s
attr unit s
par DummyScenario.veinsManager moduleType "\"simu5g.nodes.cars.NRCar\""
par DummyScenario.veinsManager moduleName "\"car\""
par DummyScenario.veinsManager moduleDisplayString "\"*='i=veins/node/car;is=vs'\""
par DummyScenario.veinsManager trafficLightModuleType "\"\""
par DummyScenario.veinsManager trafficLightModuleName "\"tls\""
par DummyScenario.veinsManager trafficLightFilter "\"\""
par DummyScenario.veinsManager trafficLightModuleDisplayString "\"i=misc/node2;is=vs;r=0,,#707070,1\""
par DummyScenario.veinsManager host "\"localhost\""
par DummyScenario.veinsManager port 9999
par DummyScenario.veinsManager seed -1
par DummyScenario.veinsManager autoShutdown true
par DummyScenario.veinsManager margin 25
par DummyScenario.veinsManager roiRoads "\"\""
par DummyScenario.veinsManager roiRects "\"\""
par DummyScenario.veinsManager penetrationRate 1
par DummyScenario.veinsManager ignoreGuiCommands false
par DummyScenario.veinsManager launchConfig "<launch>...</launch> at /home/skela/git/SyntheticTraceGenerator/SynteticTraceGenerator/simulations/Villarosa_gnb_only_test_non_mesh/heterogeneous.launchd.xml:1"
par DummyScenario.channelControl typename "\"simu5g.world.radio.LteChannelControl\""
par DummyScenario.channelControl coreDebug false
par DummyScenario.channelControl pMax 20mW
attr unit mW
par DummyScenario.channelControl sat -110dBm
attr unit dBm
par DummyScenario.channelControl alpha 2
par DummyScenario.channelControl carrierFrequency 2.4e+09Hz
attr unit Hz
par DummyScenario.channelControl numChannels 1
par DummyScenario.channelControl propagationModel "\"FreeSpaceModel\""
attr enum FreeSpaceModel,TwoRayGroundModel,RiceModel,RayleighModel,NakagamiModel,LogNormalShadowingModel
par DummyScenario.binder typename "\"simu5g.common.binder.Binder\""
par DummyScenario.binder blerShift 0
par DummyScenario.binder maxDataRatePerRb 1.16Mbps
attr unit Mbps
par DummyScenario.binder printTrafficGeneratorConfig false
par DummyScenario.carrierAggregation.componentCarrier[0] typename "\"simu5g.common.carrierAggregation.ComponentCarrier\""
par DummyScenario.carrierAggregation.componentCarrier[0] carrierFrequency 2GHz
attr unit GHz
par DummyScenario.carrierAggregation.componentCarrier[0] numBands 25
par DummyScenario.carrierAggregation.componentCarrier[0] numerologyIndex 0
par DummyScenario.carrierAggregation.componentCarrier[0] useTdd false
par DummyScenario.carrierAggregation.componentCarrier[0] tddNumSymbolsDl 7
par DummyScenario.carrierAggregation.componentCarrier[0] tddNumSymbolsUl 7
par DummyScenario.carrierAggregation typename "\"simu5g.common.carrierAggregation.CarrierAggregation\""
par DummyScenario.carrierAggregation numComponentCarriers 1
par DummyScenario.visualizer.canvasVisualizer.sceneVisualizer typename "\"inet.visualizer.canvas.scene.SceneCanvasVisualizer\""
par DummyScenario.visualizer.canvasVisualizer.sceneVisualizer visualizationTargetModule "\"^.^.^\""
par DummyScenario.visualizer.canvasVisualizer.sceneVisualizer visualizationSubjectModule "\"^.^.^\""
par DummyScenario.visualizer.canvasVisualizer.sceneVisualizer tags "\"\""
par DummyScenario.visualizer.canvasVisualizer.sceneVisualizer physicalEnvironmentModule "\"physicalEnvironment\""
par DummyScenario.visualizer.canvasVisualizer.sceneVisualizer networkNodeVisualizerModule "\"^.networkNodeVisualizer\""
par DummyScenario.visualizer.canvasVisualizer.sceneVisualizer axisLength "nan m"
attr unit m
par DummyScenario.visualizer.canvasVisualizer.sceneVisualizer animationSpeed 0
par DummyScenario.visualizer.canvasVisualizer.sceneVisualizer sceneMinX "nan m"
attr unit m
par DummyScenario.visualizer.canvasVisualizer.sceneVisualizer sceneMinY "nan m"
attr unit m
par DummyScenario.visualizer.canvasVisualizer.sceneVisualizer sceneMinZ "nan m"
attr unit m
par DummyScenario.visualizer.canvasVisualizer.sceneVisualizer sceneMaxX "nan m"
attr unit m
par DummyScenario.visualizer.canvasVisualizer.sceneVisualizer sceneMaxY "nan m"
attr unit m
par DummyScenario.visualizer.canvasVisualizer.sceneVisualizer sceneMaxZ "nan m"
attr unit m
par DummyScenario.visualizer.canvasVisualizer.sceneVisualizer zIndex 0
par DummyScenario.visualizer.canvasVisualizer.sceneVisualizer viewAngle "\"x right y down z out\""
par DummyScenario.visualizer.canvasVisualizer.sceneVisualizer viewScale "\"1 1\""
par DummyScenario.visualizer.canvasVisualizer.sceneVisualizer viewTranslation "\"0 0\""
par DummyScenario.visualizer.canvasVisualizer.sceneVisualizer descriptionFigure "\"\""
par DummyScenario.visualizer.canvasVisualizer.physicalEnvironmentVisualizer typename "\"inet.visualizer.canvas.environment.PhysicalEnvironmentCanvasVisualizer\""
par DummyScenario.visualizer.canvasVisualizer.physicalEnvironmentVisualizer visualizationTargetModule "\"^.^.^\""
par DummyScenario.visualizer.canvasVisualizer.physicalEnvironmentVisualizer visualizationSubjectModule "\"^.^.^\""
par DummyScenario.visualizer.canvasVisualizer.physicalEnvironmentVisualizer tags "\"\""
par DummyScenario.visualizer.canvasVisualizer.physicalEnvironmentVisualizer physicalEnvironmentModule "\"physicalEnvironment\""
par DummyScenario.visualizer.canvasVisualizer.physicalEnvironmentVisualizer displayObjects true
par DummyScenario.visualizer.canvasVisualizer.physicalEnvironmentVisualizer zIndex 0
par DummyScenario.visualizer.canvasVisualizer.networkNodeVisualizer typename "\"inet.visualizer.canvas.scene.NetworkNodeCanvasVisualizer\""
par DummyScenario.visualizer.canvasVisualizer.networkNodeVisualizer visualizationTargetModule "\"^.^.^\""
par DummyScenario.visualizer.canvasVisualizer.networkNodeVisualizer visualizationSubjectModule "\"^.^.^\""
par DummyScenario.visualizer.canvasVisualizer.networkNodeVisualizer tags "\"\""
par DummyScenario.visualizer.canvasVisualizer.networkNodeVisualizer nodeFilter "\"*\""
par DummyScenario.visualizer.canvasVisualizer.networkNodeVisualizer annotationSpacing 4
par DummyScenario.visualizer.canvasVisualizer.networkNodeVisualizer placementPenalty 10
par DummyScenario.visualizer.canvasVisualizer.networkNodeVisualizer zIndex 0
par DummyScenario.visualizer.canvasVisualizer.networkConnectionVisualizer typename "\"inet.visualizer.canvas.scene.NetworkConnectionCanvasVisualizer\""
par DummyScenario.visualizer.canvasVisualizer.networkConnectionVisualizer visualizationTargetModule "\"^.^.^\""
par DummyScenario.visualizer.canvasVisualizer.networkConnectionVisualizer visualizationSubjectModule "\"^.^.^\""
par DummyScenario.visualizer.canvasVisualizer.networkConnectionVisualizer tags "\"\""
par DummyScenario.visualizer.canvasVisualizer.networkConnectionVisualizer displayNetworkConnections true
par DummyScenario.visualizer.canvasVisualizer.networkConnectionVisualizer nodeFilter "\"\""
par DummyScenario.visualizer.canvasVisualizer.networkConnectionVisualizer lineColor "\"black\""
par DummyScenario.visualizer.canvasVisualizer.networkConnectionVisualizer lineStyle "\"solid\""
par DummyScenario.visualizer.canvasVisualizer.networkConnectionVisualizer lineWidth 1
par DummyScenario.visualizer.canvasVisualizer.networkConnectionVisualizer zIndex 0
par DummyScenario.visualizer.canvasVisualizer.mobilityVisualizer typename "\"inet.visualizer.canvas.mobility.MobilityCanvasVisualizer\""
par DummyScenario.visualizer.canvasVisualizer.mobilityVisualizer visualizationTargetModule "\"^.^.^\""
par DummyScenario.visualizer.canvasVisualizer.mobilityVisualizer visualizationSubjectModule "\"^.^.^\""
par DummyScenario.visualizer.canvasVisualizer.mobilityVisualizer tags "\"\""
par DummyScenario.visualizer.canvasVisualizer.mobilityVisualizer networkNodeVisualizerModule "\"^.networkNodeVisualizer\""
par DummyScenario.visualizer.canvasVisualizer.mobilityVisualizer displayMobility true
par DummyScenario.visualizer.canvasVisualizer.mobilityVisualizer animationSpeed 0
par DummyScenario.visualizer.canvasVisualizer.mobilityVisualizer moduleFilter "\"**.mobility\""
par DummyScenario.visualizer.canvasVisualizer.mobilityVisualizer displayPositions false
par DummyScenario.visualizer.canvasVisualizer.mobilityVisualizer positionCircleRadius 4
par DummyScenario.visualizer.canvasVisualizer.mobilityVisualizer positionCircleLineWidth 1
par DummyScenario.visualizer.canvasVisualizer.mobilityVisualizer positionCircleLineColor "\"dark\""
attr enum light,dark
par DummyScenario.visualizer.canvasVisualizer.mobilityVisualizer positionCircleFillColor "\"dark\""
attr enum light,dark
par DummyScenario.visualizer.canvasVisualizer.mobilityVisualizer displayOrientations false
par DummyScenario.visualizer.canvasVisualizer.mobilityVisualizer orientationPieRadius 32
par DummyScenario.visualizer.canvasVisualizer.mobilityVisualizer orientationPieSize 0.2
par DummyScenario.visualizer.canvasVisualizer.mobilityVisualizer orientationPieOpacity 0.25
par DummyScenario.visualizer.canvasVisualizer.mobilityVisualizer orientationLineColor "\"black\""
par DummyScenario.visualizer.canvasVisualizer.mobilityVisualizer orientationLineStyle "\"solid\""
par DummyScenario.visualizer.canvasVisualizer.mobilityVisualizer orientationLineWidth 1
par DummyScenario.visualizer.canvasVisualizer.mobilityVisualizer orientationFillColor "\"blue\""
par DummyScenario.visualizer.canvasVisualizer.mobilityVisualizer displayVelocities false
par DummyScenario.visualizer.canvasVisualizer.mobilityVisualizer velocityArrowScale 1
par DummyScenario.visualizer.canvasVisualizer.mobilityVisualizer velocityLineColor "\"black\""
par DummyScenario.visualizer.canvasVisualizer.mobilityVisualizer velocityLineStyle "\"solid\""
par DummyScenario.visualizer.canvasVisualizer.mobilityVisualizer velocityLineWidth 1
par DummyScenario.visualizer.canvasVisualizer.mobilityVisualizer displayMovementTrails false
par DummyScenario.visualizer.canvasVisualizer.mobilityVisualizer movementTrailLineColor "\"dark\""
attr enum light,dark
par DummyScenario.visualizer.canvasVisualizer.mobilityVisualizer movementTrailLineStyle "\"solid\""
par DummyScenario.visualizer.canvasVisualizer.mobilityVisualizer movementTrailLineWidth 1
par DummyScenario.visualizer.canvasVisualizer.mobilityVisualizer trailLength 100
par DummyScenario.visualizer.canvasVisualizer.mobilityVisualizer zIndex 0
par DummyScenario.visualizer.canvasVisualizer.statisticVisualizer typename "\"inet.visualizer.canvas.common.StatisticCanvasVisualizer\""
par DummyScenario.visualizer.canvasVisualizer.statisticVisualizer visualizationTargetModule "\"^.^.^\""
par DummyScenario.visualizer.canvasVisualizer.statisticVisualizer visualizationSubjectModule "\"^.^.^\""
par DummyScenario.visualizer.canvasVisualizer.statisticVisualizer tags "\"\""
par DummyScenario.visualizer.canvasVisualizer.statisticVisualizer networkNodeVisualizerModule "\"^.networkNodeVisualizer\""
par DummyScenario.visualizer.canvasVisualizer.statisticVisualizer displayStatistics true
par DummyScenario.visualizer.canvasVisualizer.statisticVisualizer signalName "\"\""
par DummyScenario.visualizer.canvasVisualizer.statisticVisualizer statisticName "\"\""
par DummyScenario.visualizer.canvasVisualizer.statisticVisualizer statisticUnit "\"\""
par DummyScenario.visualizer.canvasVisualizer.statisticVisualizer statisticExpression "\"\""
par DummyScenario.visualizer.canvasVisualizer.statisticVisualizer sourceFilter "\"**\""
par DummyScenario.visualizer.canvasVisualizer.statisticVisualizer format "\"%n: %v %u\""
par DummyScenario.visualizer.canvasVisualizer.statisticVisualizer unit "\"\""
par DummyScenario.visualizer.canvasVisualizer.statisticVisualizer font "\"<default>\""
par DummyScenario.visualizer.canvasVisualizer.statisticVisualizer textColor "\"black\""
par DummyScenario.visualizer.canvasVisualizer.statisticVisualizer backgroundColor "\"white\""
par DummyScenario.visualizer.canvasVisualizer.statisticVisualizer opacity 1
par DummyScenario.visualizer.canvasVisualizer.statisticVisualizer placementHint "\"top\""
par DummyScenario.visualizer.canvasVisualizer.statisticVisualizer placementPriority 0
par DummyScenario.visualizer.canvasVisualizer.statisticVisualizer zIndex 10
par DummyScenario.visualizer.canvasVisualizer.statisticVisualizer propertyName "\"\""
par DummyScenario.visualizer.canvasVisualizer.statisticVisualizer propertyIndex "\"\""
par DummyScenario.visualizer.canvasVisualizer.infoVisualizer typename "\"inet.visualizer.canvas.common.InfoCanvasVisualizer\""
par DummyScenario.visualizer.canvasVisualizer.infoVisualizer visualizationTargetModule "\"^.^.^\""
par DummyScenario.visualizer.canvasVisualizer.infoVisualizer visualizationSubjectModule "\"^.^.^\""
par DummyScenario.visualizer.canvasVisualizer.infoVisualizer tags "\"\""
par DummyScenario.visualizer.canvasVisualizer.infoVisualizer networkNodeVisualizerModule "\"^.networkNodeVisualizer\""
par DummyScenario.visualizer.canvasVisualizer.infoVisualizer displayInfos true
par DummyScenario.visualizer.canvasVisualizer.infoVisualizer modules "\"\""
par DummyScenario.visualizer.canvasVisualizer.infoVisualizer format "\"%t\""
par DummyScenario.visualizer.canvasVisualizer.infoVisualizer font "\"<default>\""
par DummyScenario.visualizer.canvasVisualizer.infoVisualizer textColor "\"black\""
par DummyScenario.visualizer.canvasVisualizer.infoVisualizer backgroundColor "\"white\""
par DummyScenario.visualizer.canvasVisualizer.infoVisualizer opacity 1
par DummyScenario.visualizer.canvasVisualizer.infoVisualizer placementHint "\"top\""
par DummyScenario.visualizer.canvasVisualizer.infoVisualizer placementPriority 0
par DummyScenario.visualizer.canvasVisualizer.infoVisualizer zIndex 10
par DummyScenario.visualizer.canvasVisualizer.energyStorageVisualizer typename "\"inet.visualizer.canvas.power.EnergyStorageCanvasVisualizer\""
par DummyScenario.visualizer.canvasVisualizer.energyStorageVisualizer visualizationTargetModule "\"^.^.^\""
par DummyScenario.visualizer.canvasVisualizer.energyStorageVisualizer visualizationSubjectModule "\"^.^.^\""
par DummyScenario.visualizer.canvasVisualizer.energyStorageVisualizer tags "\"\""
par DummyScenario.visualizer.canvasVisualizer.energyStorageVisualizer networkNodeVisualizerModule "\"^.networkNodeVisualizer\""
par DummyScenario.visualizer.canvasVisualizer.energyStorageVisualizer displayEnergyStorages false
par DummyScenario.visualizer.canvasVisualizer.energyStorageVisualizer energyStorageFilter "\"**\""
par DummyScenario.visualizer.canvasVisualizer.energyStorageVisualizer color "\"green\""
par DummyScenario.visualizer.canvasVisualizer.energyStorageVisualizer width 8
par DummyScenario.visualizer.canvasVisualizer.energyStorageVisualizer height 24
par DummyScenario.visualizer.canvasVisualizer.energyStorageVisualizer spacing 2
par DummyScenario.visualizer.canvasVisualizer.energyStorageVisualizer placementHint "\"right\""
par DummyScenario.visualizer.canvasVisualizer.energyStorageVisualizer placementPriority 0
par DummyScenario.visualizer.canvasVisualizer.energyStorageVisualizer zIndex 10
par DummyScenario.visualizer.canvasVisualizer.mediumVisualizer typename "\"inet.visualizer.canvas.physicallayer.MediumCanvasVisualizer\""
par DummyScenario.visualizer.canvasVisualizer.mediumVisualizer visualizationTargetModule "\"^.^.^\""
par DummyScenario.visualizer.canvasVisualizer.mediumVisualizer visualizationSubjectModule "\"^.^.^\""
par DummyScenario.visualizer.canvasVisualizer.mediumVisualizer tags "\"\""
par DummyScenario.visualizer.canvasVisualizer.mediumVisualizer mediumModule "\"radioMedium\""
par DummyScenario.visualizer.canvasVisualizer.mediumVisualizer networkNodeVisualizerModule "\"^.networkNodeVisualizer\""
par DummyScenario.visualizer.canvasVisualizer.mediumVisualizer nodeFilter "\"*\""
par DummyScenario.visualizer.canvasVisualizer.mediumVisualizer interfaceFilter "\"*\""
par DummyScenario.visualizer.canvasVisualizer.mediumVisualizer packetFilter "\"*\""
par DummyScenario.visualizer.canvasVisualizer.mediumVisualizer packetDataFilter "\"*\""
par DummyScenario.visualizer.canvasVisualizer.mediumVisualizer displaySignals false
par DummyScenario.visualizer.canvasVisualizer.mediumVisualizer signalColor "\"dark\""
attr enum light,dark
par DummyScenario.visualizer.canvasVisualizer.mediumVisualizer signalPropagationAnimationSpeed "nan "
par DummyScenario.visualizer.canvasVisualizer.mediumVisualizer signalPropagationAnimationTime 1s
attr unit s
par DummyScenario.visualizer.canvasVisualizer.mediumVisualizer signalPropagationAdditionalTime 0s
attr unit s
par DummyScenario.visualizer.canvasVisualizer.mediumVisualizer signalTransmissionAnimationSpeed "nan "
par DummyScenario.visualizer.canvasVisualizer.mediumVisualizer signalTransmissionAnimationTime 1s
attr unit s
par DummyScenario.visualizer.canvasVisualizer.mediumVisualizer signalAnimationSpeedChangeTimeMode "\"realTime\""
attr enum realTime,animationTime,simulationTime
par DummyScenario.visualizer.canvasVisualizer.mediumVisualizer signalAnimationSpeedChangeTime 1s
attr unit s
par DummyScenario.visualizer.canvasVisualizer.mediumVisualizer displaySignalDepartures false
par DummyScenario.visualizer.canvasVisualizer.mediumVisualizer signalDepartureImage "\"misc/signal_departure.png\""
par DummyScenario.visualizer.canvasVisualizer.mediumVisualizer signalDeparturePlacementHint "\"topCenter\""
par DummyScenario.visualizer.canvasVisualizer.mediumVisualizer signalDeparturePlacementPriority 1
par DummyScenario.visualizer.canvasVisualizer.mediumVisualizer displaySignalArrivals false
par DummyScenario.visualizer.canvasVisualizer.mediumVisualizer signalArrivalImage "\"misc/signal_arrival.png\""
par DummyScenario.visualizer.canvasVisualizer.mediumVisualizer signalArrivalPlacementHint "\"topCenter\""
par DummyScenario.visualizer.canvasVisualizer.mediumVisualizer signalArrivalPlacementPriority -1
par DummyScenario.visualizer.canvasVisualizer.mediumVisualizer displayCommunicationRanges false
par DummyScenario.visualizer.canvasVisualizer.mediumVisualizer communicationRangeLineColor "\"blue\""
par DummyScenario.visualizer.canvasVisualizer.mediumVisualizer communicationRangeLineStyle "\"solid\""
par DummyScenario.visualizer.canvasVisualizer.mediumVisualizer communicationRangeLineWidth 1
par DummyScenario.visualizer.canvasVisualizer.mediumVisualizer displayInterferenceRanges false
par DummyScenario.visualizer.canvasVisualizer.mediumVisualizer interferenceRangeLineColor "\"gray\""
par DummyScenario.visualizer.canvasVisualizer.mediumVisualizer interferenceRangeLineStyle "\"solid\""
par DummyScenario.visualizer.canvasVisualizer.mediumVisualizer interferenceRangeLineWidth 1
par DummyScenario.visualizer.canvasVisualizer.mediumVisualizer autoPowerAxis true
par DummyScenario.visualizer.canvasVisualizer.mediumVisualizer signalMinPower "inf dBmW"
attr unit dBmW
par DummyScenario.visualizer.canvasVisualizer.mediumVisualizer signalMaxPower 0dBmW
attr unit dBmW
par DummyScenario.visualizer.canvasVisualizer.mediumVisualizer signalMinPowerDensity "inf dBmWpMHz"
attr unit dBmWpMHz
par DummyScenario.visualizer.canvasVisualizer.mediumVisualizer signalMaxPowerDensity "-inf dBmWpMHz"
attr unit dBmWpMHz
par DummyScenario.visualizer.canvasVisualizer.mediumVisualizer autoTimeAxis true
par DummyScenario.visualizer.canvasVisualizer.mediumVisualizer signalMinTime 0s
attr unit s
par DummyScenario.visualizer.canvasVisualizer.mediumVisualizer signalMaxTime 0s
attr unit s
par DummyScenario.visualizer.canvasVisualizer.mediumVisualizer autoFrequencyAxis true
par DummyScenario.visualizer.canvasVisualizer.mediumVisualizer signalMinFrequency "inf Hz"
attr unit Hz
par DummyScenario.visualizer.canvasVisualizer.mediumVisualizer signalMaxFrequency "-inf Hz"
attr unit Hz
par DummyScenario.visualizer.canvasVisualizer.mediumVisualizer displayMainPowerDensityMap false
par DummyScenario.visualizer.canvasVisualizer.mediumVisualizer mainPowerDensityMapPixmapDensity 1
par DummyScenario.visualizer.canvasVisualizer.mediumVisualizer mainPowerDensityMapMinX 0
par DummyScenario.visualizer.canvasVisualizer.mediumVisualizer mainPowerDensityMapMaxX "nan "
par DummyScenario.visualizer.canvasVisualizer.mediumVisualizer mainPowerDensityMapMinY 0
par DummyScenario.visualizer.canvasVisualizer.mediumVisualizer mainPowerDensityMapMaxY "nan "
par DummyScenario.visualizer.canvasVisualizer.mediumVisualizer mainPowerDensityMapZ 0
par DummyScenario.visualizer.canvasVisualizer.mediumVisualizer mainPowerDensityMapFigureXTickCount 3
par DummyScenario.visualizer.canvasVisualizer.mediumVisualizer mainPowerDensityMapFigureYTickCount 3
par DummyScenario.visualizer.canvasVisualizer.mediumVisualizer displayPowerDensityMaps false
par DummyScenario.visualizer.canvasVisualizer.mediumVisualizer powerDensityMapMode "\"auto\""
attr enum total,signal,auto
par DummyScenario.visualizer.canvasVisualizer.mediumVisualizer powerDensityMapPixelMode "\"mean\""
attr enum sample,partition,mean
par DummyScenario.visualizer.canvasVisualizer.mediumVisualizer powerDensityMapApproximationSize 10
par DummyScenario.visualizer.canvasVisualizer.mediumVisualizer powerDensityMapCenterFrequency "nan Hz"
attr unit Hz
par DummyScenario.visualizer.canvasVisualizer.mediumVisualizer powerDensityMapBandwidth 0Hz
attr unit Hz
par DummyScenario.visualizer.canvasVisualizer.mediumVisualizer powerDensityMapFigureWidth 200
par DummyScenario.visualizer.canvasVisualizer.mediumVisualizer powerDensityMapFigureHeight 120
par DummyScenario.visualizer.canvasVisualizer.mediumVisualizer powerDensityMapPixmapWidth 200
par DummyScenario.visualizer.canvasVisualizer.mediumVisualizer powerDensityMapPixmapHeight 120
par DummyScenario.visualizer.canvasVisualizer.mediumVisualizer powerDensityMapZ 0
par DummyScenario.visualizer.canvasVisualizer.mediumVisualizer powerDensityMapFigureXTickCount 3
par DummyScenario.visualizer.canvasVisualizer.mediumVisualizer powerDensityMapFigureYTickCount 3
par DummyScenario.visualizer.canvasVisualizer.mediumVisualizer displaySpectrums false
par DummyScenario.visualizer.canvasVisualizer.mediumVisualizer spectrumMode "\"auto\""
attr enum total,signal,auto
par DummyScenario.visualizer.canvasVisualizer.mediumVisualizer spectrumFigureWidth 200
par DummyScenario.visualizer.canvasVisualizer.mediumVisualizer spectrumFigureHeight 120
par DummyScenario.visualizer.canvasVisualizer.mediumVisualizer spectrumFigureXTickCount 3
par DummyScenario.visualizer.canvasVisualizer.mediumVisualizer spectrumFigureYTickCount 5
par DummyScenario.visualizer.canvasVisualizer.mediumVisualizer spectrumFigureInterpolationSize 5
par DummyScenario.visualizer.canvasVisualizer.mediumVisualizer spectrumPlacementHint "\"bottomCenter\""
par DummyScenario.visualizer.canvasVisualizer.mediumVisualizer spectrumPlacementPriority -1
par DummyScenario.visualizer.canvasVisualizer.mediumVisualizer displaySpectrograms false
par DummyScenario.visualizer.canvasVisualizer.mediumVisualizer spectrogramMode "\"auto\""
attr enum total,signal,auto
par DummyScenario.visualizer.canvasVisualizer.mediumVisualizer spectrogramPixelMode "\"mean\""
attr enum sample,partition,mean
par DummyScenario.visualizer.canvasVisualizer.mediumVisualizer spectrogramFigureWidth 200
par DummyScenario.visualizer.canvasVisualizer.mediumVisualizer spectrogramFigureHeight 120
par DummyScenario.visualizer.canvasVisualizer.mediumVisualizer spectrogramPixmapWidth 200
par DummyScenario.visualizer.canvasVisualizer.mediumVisualizer spectrogramPixmapHeight 120
par DummyScenario.visualizer.canvasVisualizer.mediumVisualizer spectrogramFigureXTickCount 3
par DummyScenario.visualizer.canvasVisualizer.mediumVisualizer spectrogramFigureYTickCount 5
par DummyScenario.visualizer.canvasVisualizer.mediumVisualizer spectrogramPlacementHint "\"bottomCenter\""
par DummyScenario.visualizer.canvasVisualizer.mediumVisualizer spectrogramPlacementPriority -1
par DummyScenario.visualizer.canvasVisualizer.mediumVisualizer zIndex 0
par DummyScenario.visualizer.canvasVisualizer.mediumVisualizer signalShape "\"ring\""
attr enum ring,sphere
par DummyScenario.visualizer.canvasVisualizer.mediumVisualizer signalOpacity 0.5
par DummyScenario.visualizer.canvasVisualizer.mediumVisualizer signalRingCount 20
par DummyScenario.visualizer.canvasVisualizer.mediumVisualizer signalRingSize 50m
attr unit m
par DummyScenario.visualizer.canvasVisualizer.mediumVisualizer signalFadingDistance 50m
attr unit m
par DummyScenario.visualizer.canvasVisualizer.mediumVisualizer signalFadingFactor 1.2
par DummyScenario.visualizer.canvasVisualizer.mediumVisualizer signalWaveCount 20
par DummyScenario.visualizer.canvasVisualizer.mediumVisualizer signalWaveLength 50m
attr unit m
par DummyScenario.visualizer.canvasVisualizer.mediumVisualizer signalWaveWidth 10m
attr unit m
par DummyScenario.visualizer.canvasVisualizer.mediumVisualizer signalWaveFadingAnimationSpeedFactor 1
par DummyScenario.visualizer.canvasVisualizer.mediumVisualizer displayCommunicationHeat false
par DummyScenario.visualizer.canvasVisualizer.obstacleLossVisualizer typename "\"inet.visualizer.canvas.physicallayer.TracingObstacleLossCanvasVisualizer\""
par DummyScenario.visualizer.canvasVisualizer.obstacleLossVisualizer visualizationTargetModule "\"^.^.^\""
par DummyScenario.visualizer.canvasVisualizer.obstacleLossVisualizer visualizationSubjectModule "\"^.^.^\""
par DummyScenario.visualizer.canvasVisualizer.obstacleLossVisualizer tags "\"\""
par DummyScenario.visualizer.canvasVisualizer.obstacleLossVisualizer displayIntersections false
par DummyScenario.visualizer.canvasVisualizer.obstacleLossVisualizer intersectionLineColor "\"red\""
par DummyScenario.visualizer.canvasVisualizer.obstacleLossVisualizer intersectionLineStyle "\"solid\""
par DummyScenario.visualizer.canvasVisualizer.obstacleLossVisualizer intersectionLineWidth 1
par DummyScenario.visualizer.canvasVisualizer.obstacleLossVisualizer displayFaceNormalVectors false
par DummyScenario.visualizer.canvasVisualizer.obstacleLossVisualizer faceNormalLineColor "\"grey\""
par DummyScenario.visualizer.canvasVisualizer.obstacleLossVisualizer faceNormalLineStyle "\"solid\""
par DummyScenario.visualizer.canvasVisualizer.obstacleLossVisualizer faceNormalLineWidth 1
par DummyScenario.visualizer.canvasVisualizer.obstacleLossVisualizer fadeOutMode "\"realTime\""
attr enum realTime,animationTime,simulationTime
par DummyScenario.visualizer.canvasVisualizer.obstacleLossVisualizer fadeOutTime 1s
attr unit s
par DummyScenario.visualizer.canvasVisualizer.obstacleLossVisualizer fadeOutAnimationSpeed 0
par DummyScenario.visualizer.canvasVisualizer.obstacleLossVisualizer zIndex 0
par DummyScenario.visualizer.canvasVisualizer.packetDropVisualizer typename "\"inet.visualizer.canvas.common.PacketDropCanvasVisualizer\""
par DummyScenario.visualizer.canvasVisualizer.packetDropVisualizer visualizationTargetModule "\"^.^.^\""
par DummyScenario.visualizer.canvasVisualizer.packetDropVisualizer visualizationSubjectModule "\"^.^.^\""
par DummyScenario.visualizer.canvasVisualizer.packetDropVisualizer tags "\"\""
par DummyScenario.visualizer.canvasVisualizer.packetDropVisualizer displayPacketDrops false
par DummyScenario.visualizer.canvasVisualizer.packetDropVisualizer nodeFilter "\"*\""
par DummyScenario.visualizer.canvasVisualizer.packetDropVisualizer interfaceFilter "\"*\""
par DummyScenario.visualizer.canvasVisualizer.packetDropVisualizer packetFilter "\"*\""
par DummyScenario.visualizer.canvasVisualizer.packetDropVisualizer packetDataFilter "\"*\""
par DummyScenario.visualizer.canvasVisualizer.packetDropVisualizer detailsFilter "\"*\""
par DummyScenario.visualizer.canvasVisualizer.packetDropVisualizer icon "\"msg/packet_s\""
par DummyScenario.visualizer.canvasVisualizer.packetDropVisualizer iconTintAmount 1
par DummyScenario.visualizer.canvasVisualizer.packetDropVisualizer iconTintColor "\"dark\""
par DummyScenario.visualizer.canvasVisualizer.packetDropVisualizer labelFormat "\"%n\""
par DummyScenario.visualizer.canvasVisualizer.packetDropVisualizer labelFont "\"<default>\""
par DummyScenario.visualizer.canvasVisualizer.packetDropVisualizer labelColor "\"black\""
par DummyScenario.visualizer.canvasVisualizer.packetDropVisualizer fadeOutMode "\"realTime\""
attr enum realTime,animationTime,simulationTime
par DummyScenario.visualizer.canvasVisualizer.packetDropVisualizer fadeOutTime 1s
attr unit s
par DummyScenario.visualizer.canvasVisualizer.packetDropVisualizer fadeOutAnimationSpeed 0
par DummyScenario.visualizer.canvasVisualizer.packetDropVisualizer zIndex 10
par DummyScenario.visualizer.canvasVisualizer.packetDropVisualizer dx 32
par DummyScenario.visualizer.canvasVisualizer.packetDropVisualizer dy 64
par DummyScenario.visualizer.canvasVisualizer.packetFlowVisualizer typename "\"inet.visualizer.canvas.flow.PacketFlowCanvasVisualizer\""
par DummyScenario.visualizer.canvasVisualizer.packetFlowVisualizer visualizationTargetModule "\"^.^.^\""
par DummyScenario.visualizer.canvasVisualizer.packetFlowVisualizer visualizationSubjectModule "\"^.^.^\""
par DummyScenario.visualizer.canvasVisualizer.packetFlowVisualizer tags "\"\""
par DummyScenario.visualizer.canvasVisualizer.packetFlowVisualizer displayRoutes false
par DummyScenario.visualizer.canvasVisualizer.packetFlowVisualizer startPathSignal "\"packetFlowStarted\""
par DummyScenario.visualizer.canvasVisualizer.packetFlowVisualizer extendPathSignal "\"packetReceivedFromLower\""
par DummyScenario.visualizer.canvasVisualizer.packetFlowVisualizer endPathSignal "\"packetFlowEnded\""
par DummyScenario.visualizer.canvasVisualizer.packetFlowVisualizer nodeFilter "\"*\""
par DummyScenario.visualizer.canvasVisualizer.packetFlowVisualizer packetFilter "\"*\""
par DummyScenario.visualizer.canvasVisualizer.packetFlowVisualizer packetDataFilter "\"*\""
par DummyScenario.visualizer.canvasVisualizer.packetFlowVisualizer lineColor "\"dark\""
attr enum light,dark
par DummyScenario.visualizer.canvasVisualizer.packetFlowVisualizer lineStyle "\"dashed\""
par DummyScenario.visualizer.canvasVisualizer.packetFlowVisualizer lineWidth 3
par DummyScenario.visualizer.canvasVisualizer.packetFlowVisualizer lineSmooth false
par DummyScenario.visualizer.canvasVisualizer.packetFlowVisualizer lineShift 16
par DummyScenario.visualizer.canvasVisualizer.packetFlowVisualizer lineShiftMode "\"normal\""
par DummyScenario.visualizer.canvasVisualizer.packetFlowVisualizer lineContactSpacing 3
par DummyScenario.visualizer.canvasVisualizer.packetFlowVisualizer lineContactMode "\"rectangular\""
attr enum circular,rectangular
par DummyScenario.visualizer.canvasVisualizer.packetFlowVisualizer labelFormat "\"%L %p pk (%l)\""
par DummyScenario.visualizer.canvasVisualizer.packetFlowVisualizer labelFont "\"<default>, 8px\""
par DummyScenario.visualizer.canvasVisualizer.packetFlowVisualizer labelColor "\"\""
par DummyScenario.visualizer.canvasVisualizer.packetFlowVisualizer fadeOutMode "\"realTime\""
attr enum realTime,animationTime,simulationTime
par DummyScenario.visualizer.canvasVisualizer.packetFlowVisualizer fadeOutTime 0s
attr unit s
par DummyScenario.visualizer.canvasVisualizer.packetFlowVisualizer fadeOutAnimationSpeed 0
par DummyScenario.visualizer.canvasVisualizer.packetFlowVisualizer zIndex 4
par DummyScenario.visualizer.canvasVisualizer.queueVisualizer typename "\"inet.visualizer.canvas.common.QueueCanvasVisualizer\""
par DummyScenario.visualizer.canvasVisualizer.queueVisualizer visualizationTargetModule "\"^.^.^\""
par DummyScenario.visualizer.canvasVisualizer.queueVisualizer visualizationSubjectModule "\"^.^.^\""
par DummyScenario.visualizer.canvasVisualizer.queueVisualizer tags "\"\""
par DummyScenario.visualizer.canvasVisualizer.queueVisualizer networkNodeVisualizerModule "\"^.networkNodeVisualizer\""
par DummyScenario.visualizer.canvasVisualizer.queueVisualizer displayQueues false
par DummyScenario.visualizer.canvasVisualizer.queueVisualizer queueFilter "\"**\""
par DummyScenario.visualizer.canvasVisualizer.queueVisualizer color "\"blue\""
par DummyScenario.visualizer.canvasVisualizer.queueVisualizer width 8
par DummyScenario.visualizer.canvasVisualizer.queueVisualizer height 24
par DummyScenario.visualizer.canvasVisualizer.queueVisualizer spacing 2
par DummyScenario.visualizer.canvasVisualizer.queueVisualizer placementHint "\"right\""
par DummyScenario.visualizer.canvasVisualizer.queueVisualizer placementPriority 0
par DummyScenario.visualizer.canvasVisualizer.queueVisualizer zIndex 10
par DummyScenario.visualizer.canvasVisualizer.radioVisualizer typename "\"inet.visualizer.canvas.physicallayer.RadioCanvasVisualizer\""
par DummyScenario.visualizer.canvasVisualizer.radioVisualizer visualizationTargetModule "\"^.^.^\""
par DummyScenario.visualizer.canvasVisualizer.radioVisualizer visualizationSubjectModule "\"^.^.^\""
par DummyScenario.visualizer.canvasVisualizer.radioVisualizer tags "\"\""
par DummyScenario.visualizer.canvasVisualizer.radioVisualizer networkNodeVisualizerModule "\"^.networkNodeVisualizer\""
par DummyScenario.visualizer.canvasVisualizer.radioVisualizer displayRadios false
par DummyScenario.visualizer.canvasVisualizer.radioVisualizer displayRadioMode true
par DummyScenario.visualizer.canvasVisualizer.radioVisualizer displayReceptionState true
par DummyScenario.visualizer.canvasVisualizer.radioVisualizer displayTransmissionState true
par DummyScenario.visualizer.canvasVisualizer.radioVisualizer displayAntennaLobes false
par DummyScenario.visualizer.canvasVisualizer.radioVisualizer radioFilter "\"**\""
par DummyScenario.visualizer.canvasVisualizer.radioVisualizer radioModeImages "\"block/process_vs block/timer_vs block/wrx_vs block/wtx_vs block/wrxtx_vs block/cogwheel_vs\""
par DummyScenario.visualizer.canvasVisualizer.radioVisualizer receptionStateImages "\"- - misc/receiving misc/receiving\""
par DummyScenario.visualizer.canvasVisualizer.radioVisualizer transmissionStateImages "\"- - misc/transmitting\""
par DummyScenario.visualizer.canvasVisualizer.radioVisualizer width 16
par DummyScenario.visualizer.canvasVisualizer.radioVisualizer height 16
par DummyScenario.visualizer.canvasVisualizer.radioVisualizer placementHint "\"bottomRight\""
par DummyScenario.visualizer.canvasVisualizer.radioVisualizer placementPriority 0
par DummyScenario.visualizer.canvasVisualizer.radioVisualizer antennaLobeNormalize false
par DummyScenario.visualizer.canvasVisualizer.radioVisualizer antennaLobeRelativeLabels false
par DummyScenario.visualizer.canvasVisualizer.radioVisualizer antennaLobePlaneGlobal true
par DummyScenario.visualizer.canvasVisualizer.radioVisualizer antennaLobePlane "\"view\""
attr enum view,xy,xz,yz
par DummyScenario.visualizer.canvasVisualizer.radioVisualizer antennaLobeMode "\"logarithmic\""
attr enum logarithmic,linear
par DummyScenario.visualizer.canvasVisualizer.radioVisualizer antennaLobeLogarithmicBase 10
par DummyScenario.visualizer.canvasVisualizer.radioVisualizer antennaLobeLogarithmicScale 100
par DummyScenario.visualizer.canvasVisualizer.radioVisualizer antennaLobeRadius 100
par DummyScenario.visualizer.canvasVisualizer.radioVisualizer antennaLobeStep 10deg
attr unit deg
par DummyScenario.visualizer.canvasVisualizer.radioVisualizer antennaLobeOpacity 0.25
par DummyScenario.visualizer.canvasVisualizer.radioVisualizer antennaLobeLineSmooth true
par DummyScenario.visualizer.canvasVisualizer.radioVisualizer antennaLobeLineColor "\"black\""
par DummyScenario.visualizer.canvasVisualizer.radioVisualizer antennaLobeLineStyle "\"solid\""
par DummyScenario.visualizer.canvasVisualizer.radioVisualizer antennaLobeLineWidth 1
par DummyScenario.visualizer.canvasVisualizer.radioVisualizer antennaLobeFillColor "\"white\""
par DummyScenario.visualizer.canvasVisualizer.radioVisualizer zIndex 10
par DummyScenario.visualizer.canvasVisualizer.physicalLinkVisualizer typename "\"inet.visualizer.canvas.physicallayer.PhysicalLinkCanvasVisualizer\""
par DummyScenario.visualizer.canvasVisualizer.physicalLinkVisualizer visualizationTargetModule "\"^.^.^\""
par DummyScenario.visualizer.canvasVisualizer.physicalLinkVisualizer visualizationSubjectModule "\"^.^.^\""
par DummyScenario.visualizer.canvasVisualizer.physicalLinkVisualizer tags "\"\""
par DummyScenario.visualizer.canvasVisualizer.physicalLinkVisualizer displayLinks false
par DummyScenario.visualizer.canvasVisualizer.physicalLinkVisualizer activityLevel "\"service\""
attr enum service,peer,protocol
par DummyScenario.visualizer.canvasVisualizer.physicalLinkVisualizer nodeFilter "\"*\""
par DummyScenario.visualizer.canvasVisualizer.physicalLinkVisualizer interfaceFilter "\"*\""
par DummyScenario.visualizer.canvasVisualizer.physicalLinkVisualizer packetFilter "\"*\""
par DummyScenario.visualizer.canvasVisualizer.physicalLinkVisualizer packetDataFilter "\"*\""
par DummyScenario.visualizer.canvasVisualizer.physicalLinkVisualizer lineColor "\"olive\""
par DummyScenario.visualizer.canvasVisualizer.physicalLinkVisualizer lineStyle "\"dotted\""
par DummyScenario.visualizer.canvasVisualizer.physicalLinkVisualizer lineWidth 3
par DummyScenario.visualizer.canvasVisualizer.physicalLinkVisualizer lineShift 16
par DummyScenario.visualizer.canvasVisualizer.physicalLinkVisualizer lineShiftMode "\"normal\""
par DummyScenario.visualizer.canvasVisualizer.physicalLinkVisualizer lineContactSpacing 3
par DummyScenario.visualizer.canvasVisualizer.physicalLinkVisualizer lineContactMode "\"rectangular\""
attr enum circular,rectangular
par DummyScenario.visualizer.canvasVisualizer.physicalLinkVisualizer labelFormat "\"%n\""
par DummyScenario.visualizer.canvasVisualizer.physicalLinkVisualizer labelFont "\"<default>, 8px\""
par DummyScenario.visualizer.canvasVisualizer.physicalLinkVisualizer labelColor "\"olive\""
par DummyScenario.visualizer.canvasVisualizer.physicalLinkVisualizer fadeOutMode "\"realTime\""
attr enum realTime,animationTime,simulationTime
par DummyScenario.visualizer.canvasVisualizer.physicalLinkVisualizer fadeOutTime 1s
attr unit s
par DummyScenario.visualizer.canvasVisualizer.physicalLinkVisualizer fadeOutAnimationSpeed 0
par DummyScenario.visualizer.canvasVisualizer.physicalLinkVisualizer holdAnimationTime 0s
attr unit s
par DummyScenario.visualizer.canvasVisualizer.physicalLinkVisualizer zIndex 1
par DummyScenario.visualizer.canvasVisualizer.interfaceTableVisualizer typename "\"inet.visualizer.canvas.linklayer.InterfaceTableCanvasVisualizer\""
par DummyScenario.visualizer.canvasVisualizer.interfaceTableVisualizer visualizationTargetModule "\"^.^.^\""
par DummyScenario.visualizer.canvasVisualizer.interfaceTableVisualizer visualizationSubjectModule "\"^.^.^\""
par DummyScenario.visualizer.canvasVisualizer.interfaceTableVisualizer tags "\"\""
par DummyScenario.visualizer.canvasVisualizer.interfaceTableVisualizer networkNodeVisualizerModule "\"^.networkNodeVisualizer\""
par DummyScenario.visualizer.canvasVisualizer.interfaceTableVisualizer displayInterfaceTables false
par DummyScenario.visualizer.canvasVisualizer.interfaceTableVisualizer displayWiredInterfacesAtConnections true
par DummyScenario.visualizer.canvasVisualizer.interfaceTableVisualizer displayBackground false
par DummyScenario.visualizer.canvasVisualizer.interfaceTableVisualizer nodeFilter "\"*\""
par DummyScenario.visualizer.canvasVisualizer.interfaceTableVisualizer interfaceFilter "\"not(lo*)\""
par DummyScenario.visualizer.canvasVisualizer.interfaceTableVisualizer format "\"%N %\\\\%a/%l\""
par DummyScenario.visualizer.canvasVisualizer.interfaceTableVisualizer placementHint "\"top\""
par DummyScenario.visualizer.canvasVisualizer.interfaceTableVisualizer placementPriority 0
par DummyScenario.visualizer.canvasVisualizer.interfaceTableVisualizer font "\"<default>\""
par DummyScenario.visualizer.canvasVisualizer.interfaceTableVisualizer textColor "\"#005030\""
par DummyScenario.visualizer.canvasVisualizer.interfaceTableVisualizer backgroundColor "\"white\""
par DummyScenario.visualizer.canvasVisualizer.interfaceTableVisualizer opacity 1
par DummyScenario.visualizer.canvasVisualizer.interfaceTableVisualizer zIndex 10
par DummyScenario.visualizer.canvasVisualizer.dataLinkVisualizer typename "\"inet.visualizer.canvas.linklayer.DataLinkCanvasVisualizer\""
par DummyScenario.visualizer.canvasVisualizer.dataLinkVisualizer visualizationTargetModule "\"^.^.^\""
par DummyScenario.visualizer.canvasVisualizer.dataLinkVisualizer visualizationSubjectModule "\"^.^.^\""
par DummyScenario.visualizer.canvasVisualizer.dataLinkVisualizer tags "\"\""
par DummyScenario.visualizer.canvasVisualizer.dataLinkVisualizer displayLinks false
par DummyScenario.visualizer.canvasVisualizer.dataLinkVisualizer activityLevel "\"service\""
attr enum service,peer,protocol
par DummyScenario.visualizer.canvasVisualizer.dataLinkVisualizer nodeFilter "\"*\""
par DummyScenario.visualizer.canvasVisualizer.dataLinkVisualizer interfaceFilter "\"*\""
par DummyScenario.visualizer.canvasVisualizer.dataLinkVisualizer packetFilter "\"*\""
par DummyScenario.visualizer.canvasVisualizer.dataLinkVisualizer packetDataFilter "\"*\""
par DummyScenario.visualizer.canvasVisualizer.dataLinkVisualizer lineColor "\"darkcyan\""
par DummyScenario.visualizer.canvasVisualizer.dataLinkVisualizer lineStyle "\"solid\""
par DummyScenario.visualizer.canvasVisualizer.dataLinkVisualizer lineWidth 3
par DummyScenario.visualizer.canvasVisualizer.dataLinkVisualizer lineShift 16
par DummyScenario.visualizer.canvasVisualizer.dataLinkVisualizer lineShiftMode "\"normal\""
par DummyScenario.visualizer.canvasVisualizer.dataLinkVisualizer lineContactSpacing 3
par DummyScenario.visualizer.canvasVisualizer.dataLinkVisualizer lineContactMode "\"rectangular\""
attr enum circular,rectangular
par DummyScenario.visualizer.canvasVisualizer.dataLinkVisualizer labelFormat "\"%n\""
par DummyScenario.visualizer.canvasVisualizer.dataLinkVisualizer labelFont "\"<default>, 8px\""
par DummyScenario.visualizer.canvasVisualizer.dataLinkVisualizer labelColor "\"darkcyan\""
par DummyScenario.visualizer.canvasVisualizer.dataLinkVisualizer fadeOutMode "\"realTime\""
attr enum realTime,animationTime,simulationTime
par DummyScenario.visualizer.canvasVisualizer.dataLinkVisualizer fadeOutTime 1s
attr unit s
par DummyScenario.visualizer.canvasVisualizer.dataLinkVisualizer fadeOutAnimationSpeed 0
par DummyScenario.visualizer.canvasVisualizer.dataLinkVisualizer holdAnimationTime 0s
attr unit s
par DummyScenario.visualizer.canvasVisualizer.dataLinkVisualizer zIndex 2
par DummyScenario.visualizer.canvasVisualizer.linkBreakVisualizer typename "\"inet.visualizer.canvas.linklayer.LinkBreakCanvasVisualizer\""
par DummyScenario.visualizer.canvasVisualizer.linkBreakVisualizer visualizationTargetModule "\"^.^.^\""
par DummyScenario.visualizer.canvasVisualizer.linkBreakVisualizer visualizationSubjectModule "\"^.^.^\""
par DummyScenario.visualizer.canvasVisualizer.linkBreakVisualizer tags "\"\""
par DummyScenario.visualizer.canvasVisualizer.linkBreakVisualizer displayLinkBreaks false
par DummyScenario.visualizer.canvasVisualizer.linkBreakVisualizer nodeFilter "\"*\""
par DummyScenario.visualizer.canvasVisualizer.linkBreakVisualizer interfaceFilter "\"*\""
par DummyScenario.visualizer.canvasVisualizer.linkBreakVisualizer packetFilter "\"*\""
par DummyScenario.visualizer.canvasVisualizer.linkBreakVisualizer packetDataFilter "\"*\""
par DummyScenario.visualizer.canvasVisualizer.linkBreakVisualizer icon "\"status/stop\""
par DummyScenario.visualizer.canvasVisualizer.linkBreakVisualizer iconTintAmount 0
par DummyScenario.visualizer.canvasVisualizer.linkBreakVisualizer iconTintColor "\"\""
par DummyScenario.visualizer.canvasVisualizer.linkBreakVisualizer fadeOutMode "\"realTime\""
attr enum realTime,animationTime,simulationTime
par DummyScenario.visualizer.canvasVisualizer.linkBreakVisualizer fadeOutTime 1s
attr unit s
par DummyScenario.visualizer.canvasVisualizer.linkBreakVisualizer fadeOutAnimationSpeed 0
par DummyScenario.visualizer.canvasVisualizer.linkBreakVisualizer zIndex 2
par DummyScenario.visualizer.canvasVisualizer.ieee80211Visualizer typename "\"inet.visualizer.canvas.linklayer.Ieee80211CanvasVisualizer\""
par DummyScenario.visualizer.canvasVisualizer.ieee80211Visualizer visualizationTargetModule "\"^.^.^\""
par DummyScenario.visualizer.canvasVisualizer.ieee80211Visualizer visualizationSubjectModule "\"^.^.^\""
par DummyScenario.visualizer.canvasVisualizer.ieee80211Visualizer tags "\"\""
par DummyScenario.visualizer.canvasVisualizer.ieee80211Visualizer networkNodeVisualizerModule "\"^.networkNodeVisualizer\""
par DummyScenario.visualizer.canvasVisualizer.ieee80211Visualizer displayAssociations false
par DummyScenario.visualizer.canvasVisualizer.ieee80211Visualizer nodeFilter "\"*\""
par DummyScenario.visualizer.canvasVisualizer.ieee80211Visualizer interfaceFilter "\"*\""
par DummyScenario.visualizer.canvasVisualizer.ieee80211Visualizer minPower -85dBm
attr unit dBm
par DummyScenario.visualizer.canvasVisualizer.ieee80211Visualizer maxPower -50dBm
attr unit dBm
par DummyScenario.visualizer.canvasVisualizer.ieee80211Visualizer icons "\"misc/signal_power_0 misc/signal_power_1 misc/signal_power_2 misc/signal_power_3\""
par DummyScenario.visualizer.canvasVisualizer.ieee80211Visualizer iconColor "\"dark\""
attr enum light,dark
par DummyScenario.visualizer.canvasVisualizer.ieee80211Visualizer labelFont "\"<default>\""
par DummyScenario.visualizer.canvasVisualizer.ieee80211Visualizer labelColor "\"black\""
par DummyScenario.visualizer.canvasVisualizer.ieee80211Visualizer placementHint "\"top\""
par DummyScenario.visualizer.canvasVisualizer.ieee80211Visualizer placementPriority 0
par DummyScenario.visualizer.canvasVisualizer.ieee80211Visualizer zIndex 2
par DummyScenario.visualizer.canvasVisualizer.networkRouteVisualizer typename "\"inet.visualizer.canvas.networklayer.NetworkRouteCanvasVisualizer\""
par DummyScenario.visualizer.canvasVisualizer.networkRouteVisualizer visualizationTargetModule "\"^.^.^\""
par DummyScenario.visualizer.canvasVisualizer.networkRouteVisualizer visualizationSubjectModule "\"^.^.^\""
par DummyScenario.visualizer.canvasVisualizer.networkRouteVisualizer tags "\"\""
par DummyScenario.visualizer.canvasVisualizer.networkRouteVisualizer displayRoutes false
par DummyScenario.visualizer.canvasVisualizer.networkRouteVisualizer startPathSignal "\"packetReceivedFromUpper\""
par DummyScenario.visualizer.canvasVisualizer.networkRouteVisualizer extendPathSignal "\"packetReceivedFromLower\""
par DummyScenario.visualizer.canvasVisualizer.networkRouteVisualizer endPathSignal "\"packetSentToUpper\""
par DummyScenario.visualizer.canvasVisualizer.networkRouteVisualizer nodeFilter "\"*\""
par DummyScenario.visualizer.canvasVisualizer.networkRouteVisualizer packetFilter "\"*\""
par DummyScenario.visualizer.canvasVisualizer.networkRouteVisualizer packetDataFilter "\"*\""
par DummyScenario.visualizer.canvasVisualizer.networkRouteVisualizer lineColor "\"dark\""
attr enum light,dark
par DummyScenario.visualizer.canvasVisualizer.networkRouteVisualizer lineStyle "\"solid\""
par DummyScenario.visualizer.canvasVisualizer.networkRouteVisualizer lineWidth 3
par DummyScenario.visualizer.canvasVisualizer.networkRouteVisualizer lineSmooth false
par DummyScenario.visualizer.canvasVisualizer.networkRouteVisualizer lineShift 16
par DummyScenario.visualizer.canvasVisualizer.networkRouteVisualizer lineShiftMode "\"normal\""
par DummyScenario.visualizer.canvasVisualizer.networkRouteVisualizer lineContactSpacing 3
par DummyScenario.visualizer.canvasVisualizer.networkRouteVisualizer lineContactMode "\"rectangular\""
attr enum circular,rectangular
par DummyScenario.visualizer.canvasVisualizer.networkRouteVisualizer labelFormat "\"%n\""
par DummyScenario.visualizer.canvasVisualizer.networkRouteVisualizer labelFont "\"<default>, 8px\""
par DummyScenario.visualizer.canvasVisualizer.networkRouteVisualizer labelColor "\"\""
par DummyScenario.visualizer.canvasVisualizer.networkRouteVisualizer fadeOutMode "\"realTime\""
attr enum realTime,animationTime,simulationTime
par DummyScenario.visualizer.canvasVisualizer.networkRouteVisualizer fadeOutTime 1s
attr unit s
par DummyScenario.visualizer.canvasVisualizer.networkRouteVisualizer fadeOutAnimationSpeed 0
par DummyScenario.visualizer.canvasVisualizer.networkRouteVisualizer zIndex 3
par DummyScenario.visualizer.canvasVisualizer.routingTableVisualizer typename "\"inet.visualizer.canvas.networklayer.RoutingTableCanvasVisualizer\""
par DummyScenario.visualizer.canvasVisualizer.routingTableVisualizer visualizationTargetModule "\"^.^.^\""
par DummyScenario.visualizer.canvasVisualizer.routingTableVisualizer visualizationSubjectModule "\"^.^.^\""
par DummyScenario.visualizer.canvasVisualizer.routingTableVisualizer tags "\"\""
par DummyScenario.visualizer.canvasVisualizer.routingTableVisualizer displayRoutingTables false
par DummyScenario.visualizer.canvasVisualizer.routingTableVisualizer displayRoutesIndividually true
par DummyScenario.visualizer.canvasVisualizer.routingTableVisualizer displayLabels true
par DummyScenario.visualizer.canvasVisualizer.routingTableVisualizer destinationFilter "\"*\""
par DummyScenario.visualizer.canvasVisualizer.routingTableVisualizer nodeFilter "\"*\""
par DummyScenario.visualizer.canvasVisualizer.routingTableVisualizer lineColor "\"black\""
par DummyScenario.visualizer.canvasVisualizer.routingTableVisualizer lineStyle "\"solid\""
par DummyScenario.visualizer.canvasVisualizer.routingTableVisualizer lineWidth 2
par DummyScenario.visualizer.canvasVisualizer.routingTableVisualizer lineShift 16
par DummyScenario.visualizer.canvasVisualizer.routingTableVisualizer lineShiftMode "\"normal\""
par DummyScenario.visualizer.canvasVisualizer.routingTableVisualizer lineContactSpacing 3
par DummyScenario.visualizer.canvasVisualizer.routingTableVisualizer lineContactMode "\"rectangular\""
attr enum circular,rectangular
par DummyScenario.visualizer.canvasVisualizer.routingTableVisualizer labelFormat "\"%d/%m -> %g (%n)\""
par DummyScenario.visualizer.canvasVisualizer.routingTableVisualizer labelFont "\"<default>, 8px\""
par DummyScenario.visualizer.canvasVisualizer.routingTableVisualizer labelColor "\"black\""
par DummyScenario.visualizer.canvasVisualizer.routingTableVisualizer zIndex 0
par DummyScenario.visualizer.canvasVisualizer.transportRouteVisualizer typename "\"inet.visualizer.canvas.transportlayer.TransportRouteCanvasVisualizer\""
par DummyScenario.visualizer.canvasVisualizer.transportRouteVisualizer visualizationTargetModule "\"^.^.^\""
par DummyScenario.visualizer.canvasVisualizer.transportRouteVisualizer visualizationSubjectModule "\"^.^.^\""
par DummyScenario.visualizer.canvasVisualizer.transportRouteVisualizer tags "\"\""
par DummyScenario.visualizer.canvasVisualizer.transportRouteVisualizer displayRoutes false
par DummyScenario.visualizer.canvasVisualizer.transportRouteVisualizer startPathSignal "\"packetReceivedFromUpper\""
par DummyScenario.visualizer.canvasVisualizer.transportRouteVisualizer extendPathSignal "\"packetReceivedFromLower\""
par DummyScenario.visualizer.canvasVisualizer.transportRouteVisualizer endPathSignal "\"packetSentToUpper\""
par DummyScenario.visualizer.canvasVisualizer.transportRouteVisualizer nodeFilter "\"*\""
par DummyScenario.visualizer.canvasVisualizer.transportRouteVisualizer packetFilter "\"*\""
par DummyScenario.visualizer.canvasVisualizer.transportRouteVisualizer packetDataFilter "\"*\""
par DummyScenario.visualizer.canvasVisualizer.transportRouteVisualizer lineColor "\"dark\""
attr enum light,dark
par DummyScenario.visualizer.canvasVisualizer.transportRouteVisualizer lineStyle "\"solid\""
par DummyScenario.visualizer.canvasVisualizer.transportRouteVisualizer lineWidth 3
par DummyScenario.visualizer.canvasVisualizer.transportRouteVisualizer lineSmooth false
par DummyScenario.visualizer.canvasVisualizer.transportRouteVisualizer lineShift 16
par DummyScenario.visualizer.canvasVisualizer.transportRouteVisualizer lineShiftMode "\"normal\""
par DummyScenario.visualizer.canvasVisualizer.transportRouteVisualizer lineContactSpacing 3
par DummyScenario.visualizer.canvasVisualizer.transportRouteVisualizer lineContactMode "\"rectangular\""
attr enum circular,rectangular
par DummyScenario.visualizer.canvasVisualizer.transportRouteVisualizer labelFormat "\"%n\""
par DummyScenario.visualizer.canvasVisualizer.transportRouteVisualizer labelFont "\"<default>, 8px\""
par DummyScenario.visualizer.canvasVisualizer.transportRouteVisualizer labelColor "\"\""
par DummyScenario.visualizer.canvasVisualizer.transportRouteVisualizer fadeOutMode "\"realTime\""
attr enum realTime,animationTime,simulationTime
par DummyScenario.visualizer.canvasVisualizer.transportRouteVisualizer fadeOutTime 1s
attr unit s
par DummyScenario.visualizer.canvasVisualizer.transportRouteVisualizer fadeOutAnimationSpeed 0
par DummyScenario.visualizer.canvasVisualizer.transportRouteVisualizer zIndex 4
par DummyScenario.visualizer.canvasVisualizer.transportConnectionVisualizer typename "\"inet.visualizer.canvas.transportlayer.TransportConnectionCanvasVisualizer\""
par DummyScenario.visualizer.canvasVisualizer.transportConnectionVisualizer visualizationTargetModule "\"^.^.^\""
par DummyScenario.visualizer.canvasVisualizer.transportConnectionVisualizer visualizationSubjectModule "\"^.^.^\""
par DummyScenario.visualizer.canvasVisualizer.transportConnectionVisualizer tags "\"\""
par DummyScenario.visualizer.canvasVisualizer.transportConnectionVisualizer networkNodeVisualizerModule "\"^.networkNodeVisualizer\""
par DummyScenario.visualizer.canvasVisualizer.transportConnectionVisualizer displayTransportConnections false
par DummyScenario.visualizer.canvasVisualizer.transportConnectionVisualizer sourceNodeFilter "\"*\""
par DummyScenario.visualizer.canvasVisualizer.transportConnectionVisualizer sourcePortFilter "\"*\""
par DummyScenario.visualizer.canvasVisualizer.transportConnectionVisualizer destinationNodeFilter "\"*\""
par DummyScenario.visualizer.canvasVisualizer.transportConnectionVisualizer destinationPortFilter "\"*\""
par DummyScenario.visualizer.canvasVisualizer.transportConnectionVisualizer icon "\"misc/marker_s\""
par DummyScenario.visualizer.canvasVisualizer.transportConnectionVisualizer iconColor "\"dark\""
attr enum light,dark
par DummyScenario.visualizer.canvasVisualizer.transportConnectionVisualizer labelFont "\"<default>\""
par DummyScenario.visualizer.canvasVisualizer.transportConnectionVisualizer labelColor "\"black\""
par DummyScenario.visualizer.canvasVisualizer.transportConnectionVisualizer placementHint "\"top\""
par DummyScenario.visualizer.canvasVisualizer.transportConnectionVisualizer placementPriority 0
par DummyScenario.visualizer.canvasVisualizer.transportConnectionVisualizer zIndex 4
par DummyScenario.visualizer.canvasVisualizer typename "\"inet.visualizer.canvas.integrated.IntegratedCanvasVisualizer\""
par DummyScenario.visualizer typename "\"inet.visualizer.common.IntegratedVisualizer\""
par DummyScenario.roadsCanvasVisualizer typename "\"org.car2x.veins.visualizer.roads.RoadsCanvasVisualizer\""
par DummyScenario.roadsCanvasVisualizer enabled true
par DummyScenario.roadsCanvasVisualizer lineZIndex -1
par DummyScenario.roadsCanvasVisualizer lineColor "\"firebrick4\""
par DummyScenario.roadsCanvasVisualizer lineWidth 1
par DummyScenario.roadsCanvasVisualizer lineWidthZoom false
par DummyScenario.server.pppg$i[0].channel typename "\"ned.IdealChannel\""
par DummyScenario.server.ppp[0].phys$o.channel typename "\"ned.IdealChannel\""
par DummyScenario.server.interfaceTable typename "\"inet.networklayer.common.InterfaceTable\""
par DummyScenario.server.interfaceTable displayAddresses false
par DummyScenario.server.li typename "\"inet.common.MessageDispatcher\""
par DummyScenario.server.li displayStringTextFormat "\"processed %p pk (%l)\""
par DummyScenario.server.lo[0].upperLayerIn.channel typename "\"ned.IdealChannel\""
par DummyScenario.server.lo[0].lo.upperLayerOut.channel typename "\"ned.IdealChannel\""
par DummyScenario.server.lo[0].lo typename "\"inet.linklayer.loopback.Loopback\""
par DummyScenario.server.lo[0].lo interfaceTableModule "\"DummyScenario.server.interfaceTable\""
par DummyScenario.server.lo[0].lo mtu 4470B
attr unit B
par DummyScenario.server.lo[0] typename "\"inet.linklayer.loopback.LoopbackInterface\""
par DummyScenario.server.lo[0] displayStringTextFormat "\"%a (%i)\\n%m\""
par DummyScenario.server.lo[0] recordPcap false
par DummyScenario.server.lo[0] numPcapRecorders 0
par DummyScenario.server.lo[0] interfaceTableModule "\"DummyScenario.server.interfaceTable\""
par DummyScenario.server.ppp[0].upperLayerIn.channel typename "\"ned.IdealChannel\""
par DummyScenario.server.ppp[0].phys$i.channel typename "\"ned.IdealChannel\""
par DummyScenario.server.ppp[0].ppp.phys$o.channel typename "\"ned.IdealChannel\""
par DummyScenario.server.ppp[0].ppp.upperLayerOut.channel typename "\"ned.IdealChannel\""
par DummyScenario.server.ppp[0].ppp.queue typename "\"inet.queueing.queue.DropTailQueue\""
par DummyScenario.server.ppp[0].ppp.queue displayStringTextFormat "\"contains %p pk (%l) pushed %u\\npulled %o removed %r dropped %d\""
par DummyScenario.server.ppp[0].ppp.queue packetCapacity 10000
par DummyScenario.server.ppp[0].ppp.queue dataCapacity -1b
attr unit b
par DummyScenario.server.ppp[0].ppp.queue dropperClass "\"inet::queueing::PacketAtCollectionEndDropper\""
par DummyScenario.server.ppp[0].ppp.queue comparatorClass "\"\""
par DummyScenario.server.ppp[0].ppp.queue bufferModule "\"\""
par DummyScenario.server.ppp[0].ppp typename "\"inet.linklayer.ppp.Ppp\""
par DummyScenario.server.ppp[0].ppp interfaceTableModule "\"DummyScenario.server.interfaceTable\""
par DummyScenario.server.ppp[0].ppp displayStringTextFormat "\"rate: %b\\nsent: %s, rcvd: %r\\nqueue: %q, drop: %d\""
par DummyScenario.server.ppp[0].ppp sendRawBytes false
par DummyScenario.server.ppp[0].ppp mtu 4470B
attr unit B
par DummyScenario.server.ppp[0].ppp stopOperationExtraTime -1s
attr unit s
par DummyScenario.server.ppp[0].ppp stopOperationTimeout 2s
attr unit s
par DummyScenario.server.ppp[0] typename "\"inet.linklayer.ppp.PppInterface\""
par DummyScenario.server.ppp[0] displayStringTextFormat "\"%a (%i)\\n%m\""
par DummyScenario.server.ppp[0] recordPcap false
par DummyScenario.server.ppp[0] numPcapRecorders 0
par DummyScenario.server.ppp[0] interfaceTableModule "\"DummyScenario.server.interfaceTable\""
par DummyScenario.server.ipv4.transportIn.channel typename "\"ned.IdealChannel\""
par DummyScenario.server.ipv4.up.out[0].channel typename "\"ned.IdealChannel\""
par DummyScenario.server.ipv4.lp.out[2].channel typename "\"ned.IdealChannel\""
par DummyScenario.server.ipv4.ifIn.channel typename "\"ned.IdealChannel\""
par DummyScenario.server.ipv4.configurator typename "\"inet.networklayer.configurator.ipv4.Ipv4NodeConfigurator\""
par DummyScenario.server.ipv4.configurator interfaceTableModule "\"DummyScenario.server.interfaceTable\""
par DummyScenario.server.ipv4.configurator routingTableModule "\"DummyScenario.server.ipv4.routingTable\""
par DummyScenario.server.ipv4.configurator networkConfiguratorModule "\"configurator\""
par DummyScenario.server.ipv4.configurator configureRoutingTable true
par DummyScenario.server.ipv4.routingTable typename "\"inet.networklayer.ipv4.Ipv4RoutingTable\""
par DummyScenario.server.ipv4.routingTable interfaceTableModule "\"DummyScenario.server.interfaceTable\""
par DummyScenario.server.ipv4.routingTable routerId "\"auto\""
par DummyScenario.server.ipv4.routingTable netmaskRoutes "\"*\""
par DummyScenario.server.ipv4.routingTable forwarding false
par DummyScenario.server.ipv4.routingTable multicastForwarding false
par DummyScenario.server.ipv4.routingTable useAdminDist false
par DummyScenario.server.ipv4.routingTable routingFile "\"\""
par DummyScenario.server.ipv4.natTable typename "\"inet.networklayer.ipv4.Ipv4NatTable\""
par DummyScenario.server.ipv4.natTable networkProtocolModule "\"^.ip\""
par DummyScenario.server.ipv4.natTable config "<config/> at content:1"
par DummyScenario.server.ipv4.up typename "\"inet.common.MessageDispatcher\""
par DummyScenario.server.ipv4.up displayStringTextFormat "\"processed %p pk (%l)\""
par DummyScenario.server.ipv4.igmp typename "\"inet.networklayer.ipv4.Igmpv2\""
par DummyScenario.server.ipv4.igmp interfaceTableModule "\"DummyScenario.server.interfaceTable\""
par DummyScenario.server.ipv4.igmp routingTableModule "\"DummyScenario.server.ipv4.routingTable\""
par DummyScenario.server.ipv4.igmp crcMode "\"declared\""
attr enum declared,computed
par DummyScenario.server.ipv4.igmp enabled true
par DummyScenario.server.ipv4.igmp robustnessVariable 2
par DummyScenario.server.ipv4.igmp queryInterval 125s
attr unit s
par DummyScenario.server.ipv4.igmp queryResponseInterval 10s
attr unit s
par DummyScenario.server.ipv4.igmp groupMembershipInterval 260s
attr unit s
par DummyScenario.server.ipv4.igmp otherQuerierPresentInterval 255s
attr unit s
par DummyScenario.server.ipv4.igmp startupQueryInterval 31.25s
attr unit s
par DummyScenario.server.ipv4.igmp startupQueryCount 2
par DummyScenario.server.ipv4.igmp lastMemberQueryInterval 1s
attr unit s
par DummyScenario.server.ipv4.igmp lastMemberQueryCount 2
par DummyScenario.server.ipv4.igmp unsolicitedReportInterval 10s
attr unit s
par DummyScenario.server.ipv4.icmp typename "\"inet.networklayer.ipv4.Icmp\""
par DummyScenario.server.ipv4.icmp interfaceTableModule "\"DummyScenario.server.interfaceTable\""
par DummyScenario.server.ipv4.icmp routingTableModule "\"DummyScenario.server.ipv4.routingTable\""
par DummyScenario.server.ipv4.icmp crcMode "\"declared\""
attr enum declared,computed
par DummyScenario.server.ipv4.icmp quoteLength 8B
attr unit B
par DummyScenario.server.ipv4.mp typename "\"inet.common.MessageDispatcher\""
par DummyScenario.server.ipv4.mp displayStringTextFormat "\"processed %p pk (%l)\""
par DummyScenario.server.ipv4.ip typename "\"inet.networklayer.ipv4.Ipv4\""
par DummyScenario.server.ipv4.ip interfaceTableModule "\"DummyScenario.server.interfaceTable\""
par DummyScenario.server.ipv4.ip routingTableModule "\"DummyScenario.server.ipv4.routingTable\""
par DummyScenario.server.ipv4.ip arpModule "\"DummyScenario.server.ipv4.arp\""
par DummyScenario.server.ipv4.ip icmpModule "\"DummyScenario.server.ipv4.icmp\""
par DummyScenario.server.ipv4.ip crcMode "\"declared\""
attr enum declared,computed
par DummyScenario.server.ipv4.ip timeToLive 32
par DummyScenario.server.ipv4.ip multicastTimeToLive 32
par DummyScenario.server.ipv4.ip fragmentTimeout 60s
attr unit s
par DummyScenario.server.ipv4.ip limitedBroadcast false
par DummyScenario.server.ipv4.ip directBroadcastInterfaces "\"\""
par DummyScenario.server.ipv4.arp typename "\"inet.networklayer.arp.ipv4.Arp\""
par DummyScenario.server.ipv4.arp interfaceTableModule "\"DummyScenario.server.interfaceTable\""
par DummyScenario.server.ipv4.arp routingTableModule "\"DummyScenario.server.ipv4.routingTable\""
par DummyScenario.server.ipv4.arp retryTimeout 1s
attr unit s
par DummyScenario.server.ipv4.arp retryCount 3
par DummyScenario.server.ipv4.arp cacheTimeout 120s
attr unit s
par DummyScenario.server.ipv4.arp proxyArpInterfaces "\"\""
par DummyScenario.server.ipv4.lp typename "\"inet.common.MessageDispatcher\""
par DummyScenario.server.ipv4.lp displayStringTextFormat "\"processed %p pk (%l)\""
par DummyScenario.server.ipv4 typename "\"inet.networklayer.ipv4.Ipv4NetworkLayer\""
par DummyScenario.server.ipv4 forwarding false
par DummyScenario.server.ipv4 multicastForwarding false
par DummyScenario.server.ipv4 interfaceTableModule "\"DummyScenario.server.interfaceTable\""
par DummyScenario.server.ipv4 displayStringTextFormat "\"%i\""
par DummyScenario.server.nl typename "\"inet.common.MessageDispatcher\""
par DummyScenario.server.nl displayStringTextFormat "\"processed %p pk (%l)\""
par DummyScenario.server.udp typename "\"inet.transportlayer.udp.Udp\""
par DummyScenario.server.udp interfaceTableModule "\"DummyScenario.server.interfaceTable\""
par DummyScenario.server.udp icmpModule "\"^.ipv4.icmp\""
par DummyScenario.server.udp icmpv6Module "\"^.ipv6.icmpv6\""
par DummyScenario.server.udp crcMode "\"declared\""
attr enum disabled,declared,computed
par DummyScenario.server.tcp typename "\"inet.transportlayer.tcp.Tcp\""
par DummyScenario.server.tcp crcMode "\"declared\""
attr enum declared,computed
par DummyScenario.server.tcp advertisedWindow 7504
par DummyScenario.server.tcp delayedAcksEnabled false
par DummyScenario.server.tcp nagleEnabled true
par DummyScenario.server.tcp limitedTransmitEnabled false
par DummyScenario.server.tcp increasedIWEnabled false
par DummyScenario.server.tcp sackSupport false
par DummyScenario.server.tcp windowScalingSupport false
par DummyScenario.server.tcp windowScalingFactor -1
par DummyScenario.server.tcp timestampSupport false
par DummyScenario.server.tcp mss 536
par DummyScenario.server.tcp msl 120s
attr unit s
par DummyScenario.server.tcp tcpAlgorithmClass "\"TcpReno\""
attr enum TcpVegas,TcpWestwood,TcpNewReno,TcpReno,TcpTahoe,TcpNoCongestionControl
par DummyScenario.server.tcp useDataNotification false
par DummyScenario.server.tcp dupthresh 3
par DummyScenario.server.tcp initialSsthresh 4294967295
par DummyScenario.server.tcp stopOperationExtraTime 0s
attr unit s
par DummyScenario.server.tcp stopOperationTimeout 2s
attr unit s
par DummyScenario.server.tcp ecnWillingness false
par DummyScenario.server.tcp dctcpGamma 0.0625
par DummyScenario.server.tn typename "\"inet.common.MessageDispatcher\""
par DummyScenario.server.tn displayStringTextFormat "\"processed %p pk (%l)\""
par DummyScenario.server.at typename "\"inet.common.MessageDispatcher\""
par DummyScenario.server.at displayStringTextFormat "\"processed %p pk (%l)\""
par DummyScenario.server typename "\"inet.node.inet.StandardHost\""
par DummyScenario.server hasStatus false
par DummyScenario.server osgModel "\"\""
par DummyScenario.server osgModelColor "\"\""
par DummyScenario.server canvasImage "\"\""
par DummyScenario.server canvasImageColor "\"\""
par DummyScenario.server recordPcap false
par DummyScenario.server numPcapRecorders 0
par DummyScenario.server numLoInterfaces 1
par DummyScenario.server numWlanInterfaces 0
par DummyScenario.server numEthInterfaces 0
par DummyScenario.server numPppInterfaces 0
par DummyScenario.server numTunInterfaces 0
par DummyScenario.server numVirtInterfaces 0
par DummyScenario.server hasIpv4 true
par DummyScenario.server hasIpv6 false
par DummyScenario.server hasGn false
par DummyScenario.server forwarding false
par DummyScenario.server multicastForwarding false
par DummyScenario.server hasUdp true
par DummyScenario.server hasTcp true
par DummyScenario.server hasSctp false
par DummyScenario.server numApps 0
par DummyScenario.router.pppg$i[0].channel typename "\"ned.IdealChannel\""
par DummyScenario.router.ppp[0].phys$o.channel typename "\"ned.IdealChannel\""
par DummyScenario.router.pppg$i[1].channel typename "\"ned.IdealChannel\""
par DummyScenario.router.ppp[1].phys$o.channel typename "\"ned.IdealChannel\""
par DummyScenario.router.interfaceTable typename "\"inet.networklayer.common.InterfaceTable\""
par DummyScenario.router.interfaceTable displayAddresses false
par DummyScenario.router.li typename "\"inet.common.MessageDispatcher\""
par DummyScenario.router.li displayStringTextFormat "\"processed %p pk (%l)\""
par DummyScenario.router.lo[0].upperLayerIn.channel typename "\"ned.IdealChannel\""
par DummyScenario.router.lo[0].lo.upperLayerOut.channel typename "\"ned.IdealChannel\""
par DummyScenario.router.lo[0].lo typename "\"inet.linklayer.loopback.Loopback\""
par DummyScenario.router.lo[0].lo interfaceTableModule "\"DummyScenario.router.interfaceTable\""
par DummyScenario.router.lo[0].lo mtu 4470B
attr unit B
par DummyScenario.router.lo[0] typename "\"inet.linklayer.loopback.LoopbackInterface\""
par DummyScenario.router.lo[0] displayStringTextFormat "\"%a (%i)\\n%m\""
par DummyScenario.router.lo[0] recordPcap false
par DummyScenario.router.lo[0] numPcapRecorders 0
par DummyScenario.router.lo[0] interfaceTableModule "\"DummyScenario.router.interfaceTable\""
par DummyScenario.router.ppp[0].upperLayerIn.channel typename "\"ned.IdealChannel\""
par DummyScenario.router.ppp[0].phys$i.channel typename "\"ned.IdealChannel\""
par DummyScenario.router.ppp[0].ppp.phys$o.channel typename "\"ned.IdealChannel\""
par DummyScenario.router.ppp[0].ppp.upperLayerOut.channel typename "\"ned.IdealChannel\""
par DummyScenario.router.ppp[0].ppp.queue typename "\"inet.queueing.queue.DropTailQueue\""
par DummyScenario.router.ppp[0].ppp.queue displayStringTextFormat "\"contains %p pk (%l) pushed %u\\npulled %o removed %r dropped %d\""
par DummyScenario.router.ppp[0].ppp.queue packetCapacity 10000
par DummyScenario.router.ppp[0].ppp.queue dataCapacity -1b
attr unit b
par DummyScenario.router.ppp[0].ppp.queue dropperClass "\"inet::queueing::PacketAtCollectionEndDropper\""
par DummyScenario.router.ppp[0].ppp.queue comparatorClass "\"\""
par DummyScenario.router.ppp[0].ppp.queue bufferModule "\"\""
par DummyScenario.router.ppp[0].ppp typename "\"inet.linklayer.ppp.Ppp\""
par DummyScenario.router.ppp[0].ppp interfaceTableModule "\"DummyScenario.router.interfaceTable\""
par DummyScenario.router.ppp[0].ppp displayStringTextFormat "\"rate: %b\\nsent: %s, rcvd: %r\\nqueue: %q, drop: %d\""
par DummyScenario.router.ppp[0].ppp sendRawBytes false
par DummyScenario.router.ppp[0].ppp mtu 4470B
attr unit B
par DummyScenario.router.ppp[0].ppp stopOperationExtraTime -1s
attr unit s
par DummyScenario.router.ppp[0].ppp stopOperationTimeout 2s
attr unit s
par DummyScenario.router.ppp[0] typename "\"inet.linklayer.ppp.PppInterface\""
par DummyScenario.router.ppp[0] displayStringTextFormat "\"%a (%i)\\n%m\""
par DummyScenario.router.ppp[0] recordPcap false
par DummyScenario.router.ppp[0] numPcapRecorders 0
[...]
par DummyScenario.gNodeB3.x2ppp[0] recordPcap false
par DummyScenario.gNodeB3.x2ppp[0] numPcapRecorders 0
par DummyScenario.gNodeB3.x2ppp[0] interfaceTableModule "\"DummyScenario.gNodeB3.interfaceTable\""
par DummyScenario.gNodeB3.pppMEHostIf.upperLayerIn.channel typename "\"ned.IdealChannel\""
par DummyScenario.gNodeB3.pppMEHostIf.phys$i.channel typename "\"ned.IdealChannel\""
par DummyScenario.gNodeB3.pppMEHostIf.ppp.phys$o.channel typename "\"ned.IdealChannel\""
par DummyScenario.gNodeB3.pppMEHostIf.ppp.upperLayerOut.channel typename "\"ned.IdealChannel\""
par DummyScenario.gNodeB3.pppMEHostIf.ppp.queue typename "\"inet.queueing.queue.DropTailQueue\""
par DummyScenario.gNodeB3.pppMEHostIf.ppp.queue displayStringTextFormat "\"contains %p pk (%l) pushed %u\\npulled %o removed %r dropped %d\""
par DummyScenario.gNodeB3.pppMEHostIf.ppp.queue packetCapacity 10000
par DummyScenario.gNodeB3.pppMEHostIf.ppp.queue dataCapacity -1b
attr unit b
par DummyScenario.gNodeB3.pppMEHostIf.ppp.queue dropperClass "\"inet::queueing::PacketAtCollectionEndDropper\""
par DummyScenario.gNodeB3.pppMEHostIf.ppp.queue comparatorClass "\"\""
par DummyScenario.gNodeB3.pppMEHostIf.ppp.queue bufferModule "\"\""
par DummyScenario.gNodeB3.pppMEHostIf.ppp typename "\"inet.linklayer.ppp.Ppp\""
par DummyScenario.gNodeB3.pppMEHostIf.ppp interfaceTableModule "\"DummyScenario.gNodeB3.interfaceTable\""
par DummyScenario.gNodeB3.pppMEHostIf.ppp displayStringTextFormat "\"rate: %b\\nsent: %s, rcvd: %r\\nqueue: %q, drop: %d\""
par DummyScenario.gNodeB3.pppMEHostIf.ppp sendRawBytes false
par DummyScenario.gNodeB3.pppMEHostIf.ppp mtu 4470B
attr unit B
par DummyScenario.gNodeB3.pppMEHostIf.ppp stopOperationExtraTime -1s
attr unit s
par DummyScenario.gNodeB3.pppMEHostIf.ppp stopOperationTimeout 2s
attr unit s
par DummyScenario.gNodeB3.pppMEHostIf typename "\"inet.linklayer.ppp.PppInterface\""
par DummyScenario.gNodeB3.pppMEHostIf displayStringTextFormat "\"%a (%i)\\n%m\""
par DummyScenario.gNodeB3.pppMEHostIf recordPcap false
par DummyScenario.gNodeB3.pppMEHostIf numPcapRecorders 0
par DummyScenario.gNodeB3.pppMEHostIf interfaceTableModule "\"DummyScenario.gNodeB3.interfaceTable\""
par DummyScenario.gNodeB3.ipv4.transportIn.channel typename "\"ned.IdealChannel\""
par DummyScenario.gNodeB3.ipv4.up.out[0].channel typename "\"ned.IdealChannel\""
par DummyScenario.gNodeB3.ipv4.lp.out[2].channel typename "\"ned.IdealChannel\""
par DummyScenario.gNodeB3.ipv4.ifIn.channel typename "\"ned.IdealChannel\""
par DummyScenario.gNodeB3.ipv4.configurator typename "\"inet.networklayer.configurator.ipv4.Ipv4NodeConfigurator\""
par DummyScenario.gNodeB3.ipv4.configurator interfaceTableModule "\"DummyScenario.gNodeB3.interfaceTable\""
par DummyScenario.gNodeB3.ipv4.configurator routingTableModule "\"DummyScenario.gNodeB3.ipv4.routingTable\""
par DummyScenario.gNodeB3.ipv4.configurator networkConfiguratorModule "\"configurator\""
par DummyScenario.gNodeB3.ipv4.configurator configureRoutingTable true
par DummyScenario.gNodeB3.ipv4.routingTable typename "\"inet.networklayer.ipv4.Ipv4RoutingTable\""
par DummyScenario.gNodeB3.ipv4.routingTable interfaceTableModule "\"DummyScenario.gNodeB3.interfaceTable\""
par DummyScenario.gNodeB3.ipv4.routingTable routerId "\"auto\""
par DummyScenario.gNodeB3.ipv4.routingTable netmaskRoutes "\"*\""
par DummyScenario.gNodeB3.ipv4.routingTable forwarding true
par DummyScenario.gNodeB3.ipv4.routingTable multicastForwarding false
par DummyScenario.gNodeB3.ipv4.routingTable useAdminDist false
par DummyScenario.gNodeB3.ipv4.routingTable routingFile "\"\""
par DummyScenario.gNodeB3.ipv4.natTable typename "\"inet.networklayer.ipv4.Ipv4NatTable\""
par DummyScenario.gNodeB3.ipv4.natTable networkProtocolModule "\"^.ip\""
par DummyScenario.gNodeB3.ipv4.natTable config "<config/> at content:1"
par DummyScenario.gNodeB3.ipv4.up typename "\"inet.common.MessageDispatcher\""
par DummyScenario.gNodeB3.ipv4.up displayStringTextFormat "\"processed %p pk (%l)\""
par DummyScenario.gNodeB3.ipv4.igmp typename "\"inet.networklayer.ipv4.Igmpv2\""
par DummyScenario.gNodeB3.ipv4.igmp interfaceTableModule "\"DummyScenario.gNodeB3.interfaceTable\""
par DummyScenario.gNodeB3.ipv4.igmp routingTableModule "\"DummyScenario.gNodeB3.ipv4.routingTable\""
par DummyScenario.gNodeB3.ipv4.igmp crcMode "\"declared\""
attr enum declared,computed
par DummyScenario.gNodeB3.ipv4.igmp enabled true
par DummyScenario.gNodeB3.ipv4.igmp robustnessVariable 2
par DummyScenario.gNodeB3.ipv4.igmp queryInterval 125s
attr unit s
par DummyScenario.gNodeB3.ipv4.igmp queryResponseInterval 10s
attr unit s
par DummyScenario.gNodeB3.ipv4.igmp groupMembershipInterval 260s
attr unit s
par DummyScenario.gNodeB3.ipv4.igmp otherQuerierPresentInterval 255s
attr unit s
par DummyScenario.gNodeB3.ipv4.igmp startupQueryInterval 31.25s
attr unit s
par DummyScenario.gNodeB3.ipv4.igmp startupQueryCount 2
par DummyScenario.gNodeB3.ipv4.igmp lastMemberQueryInterval 1s
attr unit s
par DummyScenario.gNodeB3.ipv4.igmp lastMemberQueryCount 2
par DummyScenario.gNodeB3.ipv4.igmp unsolicitedReportInterval 10s
attr unit s
par DummyScenario.gNodeB3.ipv4.icmp typename "\"inet.networklayer.ipv4.Icmp\""
par DummyScenario.gNodeB3.ipv4.icmp interfaceTableModule "\"DummyScenario.gNodeB3.interfaceTable\""
par DummyScenario.gNodeB3.ipv4.icmp routingTableModule "\"DummyScenario.gNodeB3.ipv4.routingTable\""
par DummyScenario.gNodeB3.ipv4.icmp crcMode "\"declared\""
attr enum declared,computed
par DummyScenario.gNodeB3.ipv4.icmp quoteLength 8B
attr unit B
par DummyScenario.gNodeB3.ipv4.mp typename "\"inet.common.MessageDispatcher\""
par DummyScenario.gNodeB3.ipv4.mp displayStringTextFormat "\"processed %p pk (%l)\""
par DummyScenario.gNodeB3.ipv4.ip typename "\"inet.networklayer.ipv4.Ipv4\""
par DummyScenario.gNodeB3.ipv4.ip interfaceTableModule "\"DummyScenario.gNodeB3.interfaceTable\""
par DummyScenario.gNodeB3.ipv4.ip routingTableModule "\"DummyScenario.gNodeB3.ipv4.routingTable\""
par DummyScenario.gNodeB3.ipv4.ip arpModule "\"DummyScenario.gNodeB3.ipv4.arp\""
par DummyScenario.gNodeB3.ipv4.ip icmpModule "\"DummyScenario.gNodeB3.ipv4.icmp\""
par DummyScenario.gNodeB3.ipv4.ip crcMode "\"declared\""
attr enum declared,computed
par DummyScenario.gNodeB3.ipv4.ip timeToLive 32
par DummyScenario.gNodeB3.ipv4.ip multicastTimeToLive 32
par DummyScenario.gNodeB3.ipv4.ip fragmentTimeout 60s
attr unit s
par DummyScenario.gNodeB3.ipv4.ip limitedBroadcast false
par DummyScenario.gNodeB3.ipv4.ip directBroadcastInterfaces "\"\""
par DummyScenario.gNodeB3.ipv4.arp typename "\"inet.networklayer.arp.ipv4.Arp\""
par DummyScenario.gNodeB3.ipv4.arp interfaceTableModule "\"DummyScenario.gNodeB3.interfaceTable\""
par DummyScenario.gNodeB3.ipv4.arp routingTableModule "\"DummyScenario.gNodeB3.ipv4.routingTable\""
par DummyScenario.gNodeB3.ipv4.arp retryTimeout 1s
attr unit s
par DummyScenario.gNodeB3.ipv4.arp retryCount 3
par DummyScenario.gNodeB3.ipv4.arp cacheTimeout 120s
attr unit s
par DummyScenario.gNodeB3.ipv4.arp proxyArpInterfaces "\"*\""
par DummyScenario.gNodeB3.ipv4.lp typename "\"inet.common.MessageDispatcher\""
par DummyScenario.gNodeB3.ipv4.lp displayStringTextFormat "\"processed %p pk (%l)\""
par DummyScenario.gNodeB3.ipv4 typename "\"inet.networklayer.ipv4.Ipv4NetworkLayer\""
par DummyScenario.gNodeB3.ipv4 forwarding true
par DummyScenario.gNodeB3.ipv4 multicastForwarding false
par DummyScenario.gNodeB3.ipv4 interfaceTableModule "\"DummyScenario.gNodeB3.interfaceTable\""
par DummyScenario.gNodeB3.ipv4 displayStringTextFormat "\"%i\""
par DummyScenario.gNodeB3.udp typename "\"inet.transportlayer.udp.Udp\""
par DummyScenario.gNodeB3.udp interfaceTableModule "\"DummyScenario.gNodeB3.interfaceTable\""
par DummyScenario.gNodeB3.udp icmpModule "\"^.ipv4.icmp\""
par DummyScenario.gNodeB3.udp icmpv6Module "\"^.ipv6.icmpv6\""
par DummyScenario.gNodeB3.udp crcMode "\"declared\""
attr enum disabled,declared,computed
par DummyScenario.gNodeB3.tcp typename "\"inet.transportlayer.tcp.Tcp\""
par DummyScenario.gNodeB3.tcp crcMode "\"declared\""
attr enum declared,computed
par DummyScenario.gNodeB3.tcp advertisedWindow 7504
par DummyScenario.gNodeB3.tcp delayedAcksEnabled false
par DummyScenario.gNodeB3.tcp nagleEnabled true
par DummyScenario.gNodeB3.tcp limitedTransmitEnabled false
par DummyScenario.gNodeB3.tcp increasedIWEnabled false
par DummyScenario.gNodeB3.tcp sackSupport false
par DummyScenario.gNodeB3.tcp windowScalingSupport false
par DummyScenario.gNodeB3.tcp windowScalingFactor -1
par DummyScenario.gNodeB3.tcp timestampSupport false
par DummyScenario.gNodeB3.tcp mss 536
par DummyScenario.gNodeB3.tcp msl 120s
attr unit s
par DummyScenario.gNodeB3.tcp tcpAlgorithmClass "\"TcpReno\""
attr enum TcpVegas,TcpWestwood,TcpNewReno,TcpReno,TcpTahoe,TcpNoCongestionControl
par DummyScenario.gNodeB3.tcp useDataNotification false
par DummyScenario.gNodeB3.tcp dupthresh 3
par DummyScenario.gNodeB3.tcp initialSsthresh 4294967295
par DummyScenario.gNodeB3.tcp stopOperationExtraTime 0s
attr unit s
par DummyScenario.gNodeB3.tcp stopOperationTimeout 2s
attr unit s
par DummyScenario.gNodeB3.tcp ecnWillingness false
par DummyScenario.gNodeB3.tcp dctcpGamma 0.0625
par DummyScenario.gNodeB3.x2App[0].client typename "\"simu5g.x2.X2AppClient\""
par DummyScenario.gNodeB3.x2App[0].client localAddress "\"\""
par DummyScenario.gNodeB3.x2App[0].client localPort 0
par DummyScenario.gNodeB3.x2App[0].client connectAddress "\"gNodeB2%x2ppp1\""
par DummyScenario.gNodeB3.x2App[0].client connectPort 5001
par DummyScenario.gNodeB3.x2App[0].client startTime 0s
attr unit s
par DummyScenario.gNodeB3.x2App[0].client numRequestsPerSession 1
par DummyScenario.gNodeB3.x2App[0].client numPacketsToReceive 0
par DummyScenario.gNodeB3.x2App[0].client requestLength 1452
par DummyScenario.gNodeB3.x2App[0].client thinkTime 0s
attr unit s
par DummyScenario.gNodeB3.x2App[0].client waitToClose 0s
attr unit s
par DummyScenario.gNodeB3.x2App[0].client reconnectInterval 0s
attr unit s
par DummyScenario.gNodeB3.x2App[0].client inboundStreams 17
par DummyScenario.gNodeB3.x2App[0].client outboundStreams 1
par DummyScenario.gNodeB3.x2App[0].client echo false
par DummyScenario.gNodeB3.x2App[0].client ordered true
par DummyScenario.gNodeB3.x2App[0].client queueSize 0
par DummyScenario.gNodeB3.x2App[0].client prMethod 0
par DummyScenario.gNodeB3.x2App[0].client prValue 0
par DummyScenario.gNodeB3.x2App[0].client streamReset false
par DummyScenario.gNodeB3.x2App[0].client streamRequestTime 0s
attr unit s
par DummyScenario.gNodeB3.x2App[0].client streamResetType 5
par DummyScenario.gNodeB3.x2App[0].client streamToReset 0
par DummyScenario.gNodeB3.x2App[0].client stopTime -1s
attr unit s
par DummyScenario.gNodeB3.x2App[0].client primaryTime 0s
attr unit s
par DummyScenario.gNodeB3.x2App[0].client newPrimary "\"\""
par DummyScenario.gNodeB3.x2App[0].client streamRequestLengths "\"\""
par DummyScenario.gNodeB3.x2App[0].client streamRequestRatio "\"\""
par DummyScenario.gNodeB3.x2App[0].client streamPriorities "\"\""
par DummyScenario.gNodeB3.x2App[0].client finishEndsSimulation false
par DummyScenario.gNodeB3.x2App[0].server typename "\"simu5g.x2.X2AppServer\""
par DummyScenario.gNodeB3.x2App[0].server localAddress "\"\""
par DummyScenario.gNodeB3.x2App[0].server localPort 5000
par DummyScenario.gNodeB3.x2App[0].server echo false
par DummyScenario.gNodeB3.x2App[0].server echoDelay 0s
attr unit s
par DummyScenario.gNodeB3.x2App[0].server delayFirstRead 0s
attr unit s
par DummyScenario.gNodeB3.x2App[0].server readingInterval 0s
attr unit s
par DummyScenario.gNodeB3.x2App[0].server messagesToPush 0
par DummyScenario.gNodeB3.x2App[0].server numPacketsToSendPerClient 0
par DummyScenario.gNodeB3.x2App[0].server numPacketsToReceivePerClient 1
par DummyScenario.gNodeB3.x2App[0].server requestLength 1452
par DummyScenario.gNodeB3.x2App[0].server thinkTime 0s
attr unit s
par DummyScenario.gNodeB3.x2App[0].server waitToClose 0s
attr unit s
par DummyScenario.gNodeB3.x2App[0].server finishEndsSimulation false
par DummyScenario.gNodeB3.x2App[0].server ordered true
par DummyScenario.gNodeB3.x2App[0].server inboundStreams 17
par DummyScenario.gNodeB3.x2App[0].server outboundStreams 1
par DummyScenario.gNodeB3.x2App[0].server queueSize 0
par DummyScenario.gNodeB3.x2App[0].server prMethod 0
par DummyScenario.gNodeB3.x2App[0].server prValue 0
par DummyScenario.gNodeB3.x2App[0].server streamReset false
par DummyScenario.gNodeB3.x2App[0].server streamRequestTime 0s
attr unit s
par DummyScenario.gNodeB3.x2App[0].server streamToReset 0
par DummyScenario.gNodeB3.x2App[0].server streamPriorities "\"\""
par DummyScenario.gNodeB3.x2App[0] typename "\"simu5g.x2.LteX2App\""
par DummyScenario.gNodeB3.sctp typename "\"inet.transportlayer.sctp.Sctp\""
par DummyScenario.gNodeB3.sctp interfaceTableModule "\"DummyScenario.gNodeB3.interfaceTable\""
par DummyScenario.gNodeB3.sctp routingTableModule "\"^.ipv4.routingTable\""
par DummyScenario.gNodeB3.sctp crcMode "\"declared\""
attr enum declared,computed
par DummyScenario.gNodeB3.sctp numGapReports 3
par DummyScenario.gNodeB3.sctp rtoInitial 3s
attr unit s
par DummyScenario.gNodeB3.sctp rtoMin 1s
attr unit s
par DummyScenario.gNodeB3.sctp rtoMax 60s
attr unit s
par DummyScenario.gNodeB3.sctp rtoAlpha 0.125
par DummyScenario.gNodeB3.sctp rtoBeta 0.25
par DummyScenario.gNodeB3.sctp maxBurst 4
par DummyScenario.gNodeB3.sctp maxBurstVariant "\"maxBurst\""
par DummyScenario.gNodeB3.sctp initialWindow 0
par DummyScenario.gNodeB3.sctp assocMaxRetrans 10
par DummyScenario.gNodeB3.sctp pathMaxRetrans 5
par DummyScenario.gNodeB3.sctp maxInitRetrans 8
par DummyScenario.gNodeB3.sctp sackPeriod 0.2s
attr unit s
par DummyScenario.gNodeB3.sctp sackFrequency 2
par DummyScenario.gNodeB3.sctp reactivatePrimaryPath false
par DummyScenario.gNodeB3.sctp sendQueueLimit 0
par DummyScenario.gNodeB3.sctp validCookieLifetime 10s
attr unit s
par DummyScenario.gNodeB3.sctp enableHeartbeats false
par DummyScenario.gNodeB3.sctp hbInterval 30s
attr unit s
par DummyScenario.gNodeB3.sctp sendHeartbeatsOnActivePaths false
par DummyScenario.gNodeB3.sctp nagleEnabled false
par DummyScenario.gNodeB3.sctp naglePoint 1468
par DummyScenario.gNodeB3.sctp fragPoint 1452
par DummyScenario.gNodeB3.sctp fastRecoverySupported true
par DummyScenario.gNodeB3.sctp sctpAlgorithmClass "\"SctpAlg\""
par DummyScenario.gNodeB3.sctp ccModule 0
par DummyScenario.gNodeB3.sctp osbWithHeader false
par DummyScenario.gNodeB3.sctp RTXMethod 0
par DummyScenario.gNodeB3.sctp ssModule 0
par DummyScenario.gNodeB3.sctp arwnd 65535
par DummyScenario.gNodeB3.sctp swsLimit 3000
par DummyScenario.gNodeB3.sctp udpEncapsEnabled false
par DummyScenario.gNodeB3.sctp natFriendly false
par DummyScenario.gNodeB3.sctp bytesToAddPerRcvdChunk 0
par DummyScenario.gNodeB3.sctp bytesToAddPerPeerChunk 0
par DummyScenario.gNodeB3.sctp tellArwnd false
par DummyScenario.gNodeB3.sctp messageAcceptLimit 0
par DummyScenario.gNodeB3.sctp fairStart 0s
attr unit s
par DummyScenario.gNodeB3.sctp fairStop 0s
attr unit s
par DummyScenario.gNodeB3.sctp streamsToPaths "\"\""
par DummyScenario.gNodeB3.sctp startEndToEndDelay 0
par DummyScenario.gNodeB3.sctp stopEndToEndDelay 10
par DummyScenario.gNodeB3.sctp throughputInterval 1
par DummyScenario.gNodeB3.sctp auth false
par DummyScenario.gNodeB3.sctp chunks "\"\""
par DummyScenario.gNodeB3.sctp padding false
par DummyScenario.gNodeB3.sctp addIP false
par DummyScenario.gNodeB3.sctp addTime 0s
attr unit s
par DummyScenario.gNodeB3.sctp addAddress "\"\""
par DummyScenario.gNodeB3.sctp addIpType "\"0\""
par DummyScenario.gNodeB3.sctp packetDrop false
par DummyScenario.gNodeB3.sctp sackNow false
par DummyScenario.gNodeB3.sctp highSpeedCC false
par DummyScenario.gNodeB3.sctp checkSackSeqNumber false
par DummyScenario.gNodeB3.sctp nrSack false
par DummyScenario.gNodeB3.sctp disableReneging false
par DummyScenario.gNodeB3.sctp gapReportLimit 100000000
par DummyScenario.gNodeB3.sctp gapListOptimizationVariant "\"none\""
par DummyScenario.gNodeB3.sctp smartOverfullSACKHandling false
par DummyScenario.gNodeB3.sctp allowQoSTracking false
par DummyScenario.gNodeB3.sctp qosTrackingInterval 1s
attr unit s
par DummyScenario.gNodeB3.sctp cmtSendAllVariant "\"normal\""
par DummyScenario.gNodeB3.sctp cmtRetransmissionVariant "\"normal\""
par DummyScenario.gNodeB3.sctp cmtCUCVariant "\"normal\""
par DummyScenario.gNodeB3.sctp cmtBufferSplitVariant "\"none\""
par DummyScenario.gNodeB3.sctp cmtBufferSplittingUsesOSB false
par DummyScenario.gNodeB3.sctp cmtUseSFR true
par DummyScenario.gNodeB3.sctp cmtUseDAC true
par DummyScenario.gNodeB3.sctp cmtUseFRC true
par DummyScenario.gNodeB3.sctp cmtSmartT3Reset true
par DummyScenario.gNodeB3.sctp cmtSmartFastRTX true
par DummyScenario.gNodeB3.sctp cmtSmartReneging false
par DummyScenario.gNodeB3.sctp cmtSlowPathRTTUpdate false
par DummyScenario.gNodeB3.sctp cmtChunkReschedulingVariant "\"none\""
par DummyScenario.gNodeB3.sctp cmtChunkReschedulingThreshold 0.5
par DummyScenario.gNodeB3.sctp cmtMovedChunksReduceCwnd true
par DummyScenario.gNodeB3.sctp movedChunkFastRTXFactor 2
par DummyScenario.gNodeB3.sctp cmtSackPath "\"standard\""
par DummyScenario.gNodeB3.sctp strictCwndBooking false
par DummyScenario.gNodeB3.sctp cmtCCVariant "\"off\""
par DummyScenario.gNodeB3.sctp cmtCCPathGroups "\"\""
par DummyScenario.gNodeB3.sctp rpPathBlocking false
par DummyScenario.gNodeB3.sctp rpScaleBlockingTimeout false
par DummyScenario.gNodeB3.sctp rpMinCwnd 1
par DummyScenario.gNodeB3.at typename "\"inet.common.MessageDispatcher\""
par DummyScenario.gNodeB3.at displayStringTextFormat "\"processed %p pk (%l)\""
par DummyScenario.gNodeB3.tn typename "\"inet.common.MessageDispatcher\""
par DummyScenario.gNodeB3.tn displayStringTextFormat "\"processed %p pk (%l)\""
par DummyScenario.gNodeB3.nl typename "\"inet.common.MessageDispatcher\""
par DummyScenario.gNodeB3.nl displayStringTextFormat "\"processed %p pk (%l)\""
par DummyScenario.gNodeB3.trafficFlowFilter typename "\"simu5g.corenetwork.trafficFlowFilter.TrafficFlowFilter\""
par DummyScenario.gNodeB3.trafficFlowFilter ownerType "\"GNODEB\""
par DummyScenario.gNodeB3.trafficFlowFilter fastForwarding true
par DummyScenario.gNodeB3.gtpUser typename "\"simu5g.corenetwork.gtp.GtpUser\""
par DummyScenario.gNodeB3.gtpUser interfaceTableModule "\"DummyScenario.gNodeB3.interfaceTable\""
par DummyScenario.gNodeB3.gtpUser ipOutInterface "\"wlan\""
par DummyScenario.gNodeB3.gtpUser localPort 31
par DummyScenario.gNodeB3.gtpUser tunnelPeerPort 31
par DummyScenario.gNodeB3.gtpUser filter true
par DummyScenario.gNodeB3.gtpUserX2 typename "\"simu5g.corenetwork.gtp.GtpUserX2\""
par DummyScenario.gNodeB3.gtpUserX2 localPort 32
par DummyScenario.gNodeB3.gtpUserX2 tunnelPeerPort 32
par DummyScenario.gNodeB3 typename "\"simu5g.nodes.NR.gNodeB\""
par DummyScenario.gNodeB3 nodeType "\"GNODEB\""
par DummyScenario.gNodeB3 gateway "\"upf\""
par DummyScenario.gNodeB3 masterId 0
par DummyScenario.gNodeB3 macNodeId 3
par DummyScenario.gNodeB3 macCellId 3
par DummyScenario.gNodeB3 txPower 100mw
attr unit mw
par DummyScenario.gNodeB3 nicType "\"NRNicEnb\""
par DummyScenario.gNodeB3 hasIpv4 true
par DummyScenario.gNodeB3 hasIpv6 false
par DummyScenario.gNodeB3 numApps 0
par DummyScenario.gNodeB3 numX2Apps 1
par DummyScenario.gNodeB3 hasUdp true
par DummyScenario.gNodeB3 hasTcp true
par DummyScenario.gNodeB3 hasSctp true
par DummyScenario.gNodeB3 mecHost "\"\""
par DummyScenario.gNodeB3 StatsCollectorType "\"GNodeBStatsCollector\""
par DummyScenario.gNodeB3 hasRNISupport false
par DummyScenario.gNodeB3 extMeAppsAddress "\"\""
par DummyScenario.gNodeB3 mcc "\"001\""
par DummyScenario.gNodeB3 mnc "\"01\""
par DummyScenario typename "\"syntetictracegenerator.simulations.Villarosa_gnb_only_test_non_mesh.DummyScenario\""
par DummyScenario playgroundSizeX 20000m
attr unit m
par DummyScenario playgroundSizeY 20000m
attr unit m
par DummyScenario playgroundSizeZ 50m
attr unit m

