version 3
run General-0-20220302-17:20:19-139490
attr configname General
attr datetime 20220302-17:20:19
attr datetimef 20220302-172019
attr experiment General
attr inifile omnetpp.ini
attr iterationvars ""
attr iterationvarsd ""
attr iterationvarsf ""
attr measurement ""
attr network syntetictracegenerator.simulations.Villarosa_gnb_only_test_non_mesh.DummyScenario
attr processid 139490
attr repetition 0
attr replication #0
attr resultdir results
attr runnumber 0
attr seedset 0
config image-path ../../images:../../../../../Documents/WORKSPACE/software/workspace/inet4.3/images:../../../../../Documents/WORKSPACE/software/workspace/Simu5G/images:../../../../../Documents/WORKSPACE/software/workspace/veins/subprojects/veins_inet/images:../../../../../Documents/WORKSPACE/software/workspace/veins/images
config cmdenv-express-mode true
config cmdenv-autoflush true
config image-path ../../images
config network syntetictracegenerator.simulations.Villarosa_gnb_only_test_non_mesh.DummyScenario
config debug-on-errors false
config print-undisposed false
config num-rngs 3
config repeat 15
config seed-set 0
config output-scalar-file results/General/0.sca
config output-vector-file results/General/0.vec
config **.routingRecorder.enabled false
config **.scalar-recording false
config **.vector-recording false
config *.playgroundSizeX 20000m
config *.playgroundSizeY 20000m
config *.playgroundSizeZ 50m
config *.veinsManager.host "\"localhost\""
config *.veinsManager.moduleType "\"simu5g.nodes.cars.NRCar\""
config *.veinsManager.moduleName "\"car\""
config *.veinsManager.launchConfig "xmldoc(\"heterogeneous.launchd.xml\")"
config *.veinsManager.updateInterval 0.1s
config *.car[*].mobilityType "\"VeinsInetMobility\""
config **.numBands 25
config **.ueTxPower 26
config **.eNodeBTxPower 46
config *.car[*].cellularNic.nrPhy.dynamicCellAssociation true
config *.car[*].masterId 0
config *.car[*].macCellId 0
config *.car[*].nrMasterId 1
config *.car[*].nrMacCellId 1
config **.gNodeB1.macCellId 1
config **.gNodeB1.macNodeId 1
config **.gNodeB2.macCellId 2
config **.gNodeB2.macNodeId 2
config *.car[*].cellularNic.nrPhy.enableHandover true
config *.gNodeB*.cellularNic.phy.enableHandover true
config *.gNodeB*.cellularNic.phy.handoverLatency 50ms
config *.gNodeB*.cellInfo.broadcastMessageInterval 1s
config *.gNodeB2.numX2Apps 2
config *.gNodeB*.numX2Apps 1
config *.gNodeB*.x2App[*].server.localPort "5000 + ancestorIndex(1)"
config *.gNodeB1.x2App[0].client.connectAddress "\"gNodeB2%x2ppp0\""
config *.gNodeB2.x2App[0].client.connectAddress "\"gNodeB1%x2ppp0\""
config *.gNodeB2.x2App[1].client.connectAddress "\"gNodeB3%x2ppp0\""
config *.gNodeB3.x2App[0].client.connectAddress "\"gNodeB2%x2ppp1\""
config **.sctp.nagleEnabled false
config **.sctp.enableHeartbeats false

par DummyScenario.car[1].interfaceTable typename "\"inet.networklayer.common.InterfaceTable\""
par DummyScenario.car[1].interfaceTable displayAddresses false
par DummyScenario.car[1].mobility typename "\"org.car2x.veins.subprojects.veins_inet.VeinsInetMobility\""
par DummyScenario.car[1].mobility subjectModule "\"^\""
par DummyScenario.car[1].mobility coordinateSystemModule "\"\""
par DummyScenario.car[1].mobility displayStringTextFormat "\"p: %p\\nv: %v\""
par DummyScenario.car[1].mobility updateDisplayString true
par DummyScenario.car[1].mobility constraintAreaMinX "-inf m"
attr unit m
par DummyScenario.car[1].mobility constraintAreaMinY "-inf m"
attr unit m
par DummyScenario.car[1].mobility constraintAreaMinZ "-inf m"
attr unit m
par DummyScenario.car[1].mobility constraintAreaMaxX "inf m"
attr unit m
par DummyScenario.car[1].mobility constraintAreaMaxY "inf m"
attr unit m
par DummyScenario.car[1].mobility constraintAreaMaxZ "inf m"
attr unit m
par DummyScenario.car[1].mobility initFromDisplayString true
par DummyScenario.car[1].udp typename "\"inet.transportlayer.udp.Udp\""
par DummyScenario.car[1].udp interfaceTableModule "\"DummyScenario.car[1].interfaceTable\""
par DummyScenario.car[1].udp icmpModule "\"^.ipv4.icmp\""
par DummyScenario.car[1].udp icmpv6Module "\"^.ipv6.icmpv6\""
par DummyScenario.car[1].udp crcMode "\"declared\""
attr enum disabled,declared,computed
par DummyScenario.car[1].tcp typename "\"inet.transportlayer.tcp.Tcp\""
par DummyScenario.car[1].tcp crcMode "\"declared\""
attr enum declared,computed
par DummyScenario.car[1].tcp advertisedWindow 7504
par DummyScenario.car[1].tcp delayedAcksEnabled false
par DummyScenario.car[1].tcp nagleEnabled true
par DummyScenario.car[1].tcp limitedTransmitEnabled false
par DummyScenario.car[1].tcp increasedIWEnabled false
par DummyScenario.car[1].tcp sackSupport false
par DummyScenario.car[1].tcp windowScalingSupport false
par DummyScenario.car[1].tcp windowScalingFactor -1
par DummyScenario.car[1].tcp timestampSupport false
par DummyScenario.car[1].tcp mss 536
par DummyScenario.car[1].tcp msl 120s
attr unit s
par DummyScenario.car[1].tcp tcpAlgorithmClass "\"TcpReno\""
attr enum TcpVegas,TcpWestwood,TcpNewReno,TcpReno,TcpTahoe,TcpNoCongestionControl
par DummyScenario.car[1].tcp useDataNotification false
par DummyScenario.car[1].tcp dupthresh 3
par DummyScenario.car[1].tcp initialSsthresh 4294967295
par DummyScenario.car[1].tcp stopOperationExtraTime 0s
attr unit s
par DummyScenario.car[1].tcp stopOperationTimeout 2s
attr unit s
par DummyScenario.car[1].tcp ecnWillingness false
par DummyScenario.car[1].tcp dctcpGamma 0.0625
par DummyScenario.car[1].ipv4.transportIn.channel typename "\"ned.IdealChannel\""
par DummyScenario.car[1].ipv4.up.out[0].channel typename "\"ned.IdealChannel\""
par DummyScenario.car[1].ipv4.lp.out[2].channel typename "\"ned.IdealChannel\""
par DummyScenario.car[1].ipv4.ifIn.channel typename "\"ned.IdealChannel\""
par DummyScenario.car[1].ipv4.configurator typename "\"inet.networklayer.configurator.ipv4.HostAutoConfigurator\""
par DummyScenario.car[1].ipv4.configurator interfaceTableModule "\"DummyScenario.car[1].interfaceTable\""
par DummyScenario.car[1].ipv4.configurator interfaces "\"wlan\""
par DummyScenario.car[1].ipv4.configurator addressBase "\"10.0.0.0\""
par DummyScenario.car[1].ipv4.configurator netmask "\"255.0.0.0\""
par DummyScenario.car[1].ipv4.configurator mcastGroups "\"\""
par DummyScenario.car[1].ipv4.routingTable typename "\"inet.networklayer.ipv4.Ipv4RoutingTable\""
par DummyScenario.car[1].ipv4.routingTable interfaceTableModule "\"DummyScenario.car[1].interfaceTable\""
par DummyScenario.car[1].ipv4.routingTable routerId "\"auto\""
par DummyScenario.car[1].ipv4.routingTable netmaskRoutes "\"*\""
par DummyScenario.car[1].ipv4.routingTable forwarding false
par DummyScenario.car[1].ipv4.routingTable multicastForwarding false
par DummyScenario.car[1].ipv4.routingTable useAdminDist false
par DummyScenario.car[1].ipv4.routingTable routingFile "\"\""
par DummyScenario.car[1].ipv4.natTable typename "\"inet.networklayer.ipv4.Ipv4NatTable\""
par DummyScenario.car[1].ipv4.natTable networkProtocolModule "\"^.ip\""
par DummyScenario.car[1].ipv4.natTable config "<config/> at content:1"
par DummyScenario.car[1].ipv4.up typename "\"inet.common.MessageDispatcher\""
par DummyScenario.car[1].ipv4.up displayStringTextFormat "\"processed %p pk (%l)\""
par DummyScenario.car[1].ipv4.igmp typename "\"inet.networklayer.ipv4.Igmpv2\""
par DummyScenario.car[1].ipv4.igmp interfaceTableModule "\"DummyScenario.car[1].interfaceTable\""
par DummyScenario.car[1].ipv4.igmp routingTableModule "\"DummyScenario.car[1].ipv4.routingTable\""
par DummyScenario.car[1].ipv4.igmp crcMode "\"declared\""
attr enum declared,computed
par DummyScenario.car[1].ipv4.igmp enabled true
par DummyScenario.car[1].ipv4.igmp robustnessVariable 2
par DummyScenario.car[1].ipv4.igmp queryInterval 125s
attr unit s
par DummyScenario.car[1].ipv4.igmp queryResponseInterval 10s
attr unit s
par DummyScenario.car[1].ipv4.igmp groupMembershipInterval 260s
attr unit s
par DummyScenario.car[1].ipv4.igmp otherQuerierPresentInterval 255s
attr unit s
par DummyScenario.car[1].ipv4.igmp startupQueryInterval 31.25s
attr unit s
par DummyScenario.car[1].ipv4.igmp startupQueryCount 2
par DummyScenario.car[1].ipv4.igmp lastMemberQueryInterval 1s
attr unit s
par DummyScenario.car[1].ipv4.igmp lastMemberQueryCount 2
par DummyScenario.car[1].ipv4.igmp unsolicitedReportInterval 10s
attr unit s
par DummyScenario.car[1].ipv4.icmp typename "\"inet.networklayer.ipv4.Icmp\""
par DummyScenario.car[1].ipv4.icmp interfaceTableModule "\"DummyScenario.car[1].interfaceTable\""
par DummyScenario.car[1].ipv4.icmp routingTableModule "\"DummyScenario.car[1].ipv4.routingTable\""
par DummyScenario.car[1].ipv4.icmp crcMode "\"declared\""
attr enum declared,computed
par DummyScenario.car[1].ipv4.icmp quoteLength 8B
attr unit B
par DummyScenario.car[1].ipv4.mp typename "\"inet.common.MessageDispatcher\""
par DummyScenario.car[1].ipv4.mp displayStringTextFormat "\"processed %p pk (%l)\""
par DummyScenario.car[1].ipv4.ip typename "\"inet.networklayer.ipv4.Ipv4\""
par DummyScenario.car[1].ipv4.ip interfaceTableModule "\"DummyScenario.car[1].interfaceTable\""
par DummyScenario.car[1].ipv4.ip routingTableModule "\"DummyScenario.car[1].ipv4.routingTable\""
par DummyScenario.car[1].ipv4.ip arpModule "\"DummyScenario.car[1].ipv4.arp\""
par DummyScenario.car[1].ipv4.ip icmpModule "\"DummyScenario.car[1].ipv4.icmp\""
par DummyScenario.car[1].ipv4.ip crcMode "\"declared\""
attr enum declared,computed
par DummyScenario.car[1].ipv4.ip timeToLive 32
par DummyScenario.car[1].ipv4.ip multicastTimeToLive 32
par DummyScenario.car[1].ipv4.ip fragmentTimeout 60s
attr unit s
par DummyScenario.car[1].ipv4.ip limitedBroadcast false
par DummyScenario.car[1].ipv4.ip directBroadcastInterfaces "\"\""
par DummyScenario.car[1].ipv4.arp typename "\"inet.networklayer.arp.ipv4.Arp\""
par DummyScenario.car[1].ipv4.arp interfaceTableModule "\"DummyScenario.car[1].interfaceTable\""
par DummyScenario.car[1].ipv4.arp routingTableModule "\"DummyScenario.car[1].ipv4.routingTable\""
par DummyScenario.car[1].ipv4.arp retryTimeout 1s
attr unit s
par DummyScenario.car[1].ipv4.arp retryCount 3
par DummyScenario.car[1].ipv4.arp cacheTimeout 120s
attr unit s
par DummyScenario.car[1].ipv4.arp proxyArpInterfaces "\"*\""
par DummyScenario.car[1].ipv4.lp typename "\"inet.common.MessageDispatcher\""
par DummyScenario.car[1].ipv4.lp displayStringTextFormat "\"processed %p pk (%l)\""
par DummyScenario.car[1].ipv4 typename "\"inet.networklayer.ipv4.Ipv4NetworkLayer\""
par DummyScenario.car[1].ipv4 forwarding false
par DummyScenario.car[1].ipv4 multicastForwarding false
par DummyScenario.car[1].ipv4 interfaceTableModule "\"DummyScenario.car[1].interfaceTable\""
par DummyScenario.car[1].ipv4 displayStringTextFormat "\"%i\""
par DummyScenario.car[1].lo[0].upperLayerIn.channel typename "\"ned.IdealChannel\""
par DummyScenario.car[1].lo[0].lo.upperLayerOut.channel typename "\"ned.IdealChannel\""
par DummyScenario.car[1].lo[0].lo typename "\"inet.linklayer.loopback.Loopback\""
par DummyScenario.car[1].lo[0].lo interfaceTableModule "\"DummyScenario.car[1].interfaceTable\""
par DummyScenario.car[1].lo[0].lo mtu 4470B
attr unit B
par DummyScenario.car[1].lo[0] typename "\"inet.linklayer.loopback.LoopbackInterface\""
par DummyScenario.car[1].lo[0] displayStringTextFormat "\"%a (%i)\\n%m\""
par DummyScenario.car[1].lo[0] recordPcap false
par DummyScenario.car[1].lo[0] numPcapRecorders 0
par DummyScenario.car[1].lo[0] interfaceTableModule "\"DummyScenario.car[1].interfaceTable\""
par DummyScenario.car[1].cellularNic.ip2nic.upperLayerOut.channel typename "\"ned.DelayChannel\""
par DummyScenario.car[1].cellularNic.ip2nic.upperLayerOut.channel disabled false
par DummyScenario.car[1].cellularNic.ip2nic.upperLayerOut.channel delay 0s
attr unit s
par DummyScenario.car[1].cellularNic.upperLayerIn.channel typename "\"ned.DelayChannel\""
par DummyScenario.car[1].cellularNic.upperLayerIn.channel disabled false
par DummyScenario.car[1].cellularNic.upperLayerIn.channel delay 0s
attr unit s
par DummyScenario.car[1].cellularNic.ip2nic typename "\"simu5g.stack.ip2nic.IP2Nic\""
par DummyScenario.car[1].cellularNic.ip2nic nodeType "\"UE\""
par DummyScenario.car[1].cellularNic.ip2nic interfaceTableModule "\"DummyScenario.car[1].interfaceTable\""
par DummyScenario.car[1].cellularNic.ip2nic routingTableModule "\"DummyScenario.car[1].ipv4.routingTable\""
par DummyScenario.car[1].cellularNic.pdcpRrc typename "\"simu5g.stack.pdcp_rrc.NRPdcpRrcUe\""
par DummyScenario.car[1].cellularNic.pdcpRrc headerCompressedSize -1B
attr unit B
par DummyScenario.car[1].cellularNic.pdcpRrc conversationalRlc 1
attr enum TM,UM,AM,UNKNOWN_RLC_TYPE
par DummyScenario.car[1].cellularNic.pdcpRrc streamingRlc 1
attr enum TM,UM,AM,UNKNOWN_RLC_TYPE
par DummyScenario.car[1].cellularNic.pdcpRrc interactiveRlc 1
attr enum TM,UM,AM,UNKNOWN_RLC_TYPE
par DummyScenario.car[1].cellularNic.pdcpRrc backgroundRlc 1
attr enum TM,UM,AM,UNKNOWN_RLC_TYPE
par DummyScenario.car[1].cellularNic.rlc.tm typename "\"simu5g.stack.rlc.LteRlcTm\""
par DummyScenario.car[1].cellularNic.rlc.tm queueSize 2097152B
attr unit B
par DummyScenario.car[1].cellularNic.rlc.um typename "\"simu5g.stack.rlc.LteRlcUmD2D\""
par DummyScenario.car[1].cellularNic.rlc.um queueSize 2097152B
attr unit B
par DummyScenario.car[1].cellularNic.rlc.um mapAllLcidsToSingleBearer false
par DummyScenario.car[1].cellularNic.rlc.am typename "\"simu5g.stack.rlc.LteRlcAm\""
par DummyScenario.car[1].cellularNic.rlc.mux typename "\"simu5g.stack.rlc.LteRlcMux\""
par DummyScenario.car[1].cellularNic.rlc typename "\"simu5g.stack.rlc.LteRlc\""
par DummyScenario.car[1].cellularNic.rlc LteRlcUmType "\"LteRlcUm\""
par DummyScenario.car[1].cellularNic.rlc d2dCapable true
par DummyScenario.car[1].cellularNic.rlc umType "\"LteRlcUmD2D\""
par DummyScenario.car[1].cellularNic.mac typename "\"simu5g.stack.mac.LteMacUeD2D\""
par DummyScenario.car[1].cellularNic.mac interfaceTableModule "\"DummyScenario.car[1].interfaceTable\""
par DummyScenario.car[1].cellularNic.mac queueSize 2097152B
attr unit B
par DummyScenario.car[1].cellularNic.mac muMimo true
par DummyScenario.car[1].cellularNic.mac harqProcesses 8
par DummyScenario.car[1].cellularNic.mac maxHarqRtx 3
par DummyScenario.car[1].cellularNic.mac harqFbEvaluationTimer 4
par DummyScenario.car[1].cellularNic.mac statDisplay false
par DummyScenario.car[1].cellularNic.mac usePreconfiguredTxParams false
par DummyScenario.car[1].cellularNic.mac d2dCqi 7
par DummyScenario.car[1].cellularNic.phy typename "\"simu5g.stack.phy.NRPhyUe\""
par DummyScenario.car[1].cellularNic.phy ueTxPower 26
par DummyScenario.car[1].cellularNic.phy eNodeBTxPower 46
par DummyScenario.car[1].cellularNic.phy microTxPower 30
par DummyScenario.car[1].cellularNic.phy txDirection "\"OMNI\""
par DummyScenario.car[1].cellularNic.phy txAngle 0
par DummyScenario.car[1].cellularNic.phy dynamicCellAssociation false
par DummyScenario.car[1].cellularNic.phy enableHandover false
par DummyScenario.car[1].cellularNic.phy handoverLatency 0.05s
attr unit s
par DummyScenario.car[1].cellularNic.phy enableMulticastD2DRangeCheck false
par DummyScenario.car[1].cellularNic.phy multicastD2DRange 1000m
attr unit m
par DummyScenario.car[1].cellularNic.phy minRssiDefault true
par DummyScenario.car[1].cellularNic.phy minRssi -99dB
attr unit dB
par DummyScenario.car[1].cellularNic.phy d2dTxPower 26
par DummyScenario.car[1].cellularNic.phy d2dMulticastCaptureEffect true
par DummyScenario.car[1].cellularNic.phy d2dMulticastCaptureEffectFactor "\"RSRP\""
par DummyScenario.car[1].cellularNic.channelModel[0] typename "\"simu5g.stack.phy.ChannelModel.LteRealisticChannelModel\""
par DummyScenario.car[1].cellularNic.channelModel[0] componentCarrierIndex 0
par DummyScenario.car[1].cellularNic.channelModel[0] shadowing true
par DummyScenario.car[1].cellularNic.channelModel[0] scenario "\"URBAN_MACROCELL\""
par DummyScenario.car[1].cellularNic.channelModel[0] nodeb_height 25
par DummyScenario.car[1].cellularNic.channelModel[0] building_height 20
par DummyScenario.car[1].cellularNic.channelModel[0] inside_building false
par DummyScenario.car[1].cellularNic.channelModel[0] street_wide 20
par DummyScenario.car[1].cellularNic.channelModel[0] ue_height 1.5
par DummyScenario.car[1].cellularNic.channelModel[0] tolerateMaxDistViolation false
par DummyScenario.car[1].cellularNic.channelModel[0] useTorus false
par DummyScenario.car[1].cellularNic.channelModel[0] correlation_distance 50
par DummyScenario.car[1].cellularNic.channelModel[0] targetBler 0.01
par DummyScenario.car[1].cellularNic.channelModel[0] harqReduction 0.2
par DummyScenario.car[1].cellularNic.channelModel[0] lambdaMinTh 0.02
par DummyScenario.car[1].cellularNic.channelModel[0] lambdaMaxTh 0.2
par DummyScenario.car[1].cellularNic.channelModel[0] lambdaRatioTh 20
par DummyScenario.car[1].cellularNic.channelModel[0] antennaGainUe 0
par DummyScenario.car[1].cellularNic.channelModel[0] antennGainEnB 18
par DummyScenario.car[1].cellularNic.channelModel[0] antennGainMicro 5
par DummyScenario.car[1].cellularNic.channelModel[0] thermalNoise -104.5
par DummyScenario.car[1].cellularNic.channelModel[0] ue_noise_figure 7
par DummyScenario.car[1].cellularNic.channelModel[0] bs_noise_figure 5
par DummyScenario.car[1].cellularNic.channelModel[0] cable_loss 2
par DummyScenario.car[1].cellularNic.channelModel[0] dynamic_los false
par DummyScenario.car[1].cellularNic.channelModel[0] fixed_los false
par DummyScenario.car[1].cellularNic.channelModel[0] fading true
par DummyScenario.car[1].cellularNic.channelModel[0] fading_type "\"JAKES\""
par DummyScenario.car[1].cellularNic.channelModel[0] fading_paths 6
par DummyScenario.car[1].cellularNic.channelModel[0] delay_rms 3.63e-07
par DummyScenario.car[1].cellularNic.channelModel[0] bgCell_interference true
par DummyScenario.car[1].cellularNic.channelModel[0] extCell_interference true
par DummyScenario.car[1].cellularNic.channelModel[0] downlink_interference false
par DummyScenario.car[1].cellularNic.channelModel[0] uplink_interference false
par DummyScenario.car[1].cellularNic.channelModel[0] d2d_interference true
par DummyScenario.car[1].cellularNic.channelModel[0] enable_extCell_los true
par DummyScenario.car[1].cellularNic.channelModel[0] useRsrqFromLog false
par DummyScenario.car[1].cellularNic.channelModel[0] rsrqShift 22
par DummyScenario.car[1].cellularNic.channelModel[0] rsrqScale 1
par DummyScenario.car[1].cellularNic.channelModel[0] collectSinrStatistics true
par DummyScenario.car[1].cellularNic.dlFbGen typename "\"simu5g.stack.phy.feedback.LteDlFeedbackGenerator\""
par DummyScenario.car[1].cellularNic.dlFbGen feedbackType "\"ALLBANDS\""
par DummyScenario.car[1].cellularNic.dlFbGen rbAllocationType "\"localized\""
par DummyScenario.car[1].cellularNic.dlFbGen fbPeriod 6
par DummyScenario.car[1].cellularNic.dlFbGen fbDelay 1
par DummyScenario.car[1].cellularNic.dlFbGen usePeriodic true
par DummyScenario.car[1].cellularNic.dlFbGen initialTxMode "\"SINGLE_ANTENNA_PORT0\""
par DummyScenario.car[1].cellularNic.dlFbGen feedbackGeneratorType "\"IDEAL\""
par DummyScenario.car[1].cellularNic.nrRlc.tm typename "\"simu5g.stack.rlc.LteRlcTm\""
par DummyScenario.car[1].cellularNic.nrRlc.tm queueSize 2097152B
attr unit B
par DummyScenario.car[1].cellularNic.nrRlc.um typename "\"simu5g.stack.rlc.LteRlcUmD2D\""
par DummyScenario.car[1].cellularNic.nrRlc.um queueSize 2097152B
attr unit B
par DummyScenario.car[1].cellularNic.nrRlc.um mapAllLcidsToSingleBearer false
par DummyScenario.car[1].cellularNic.nrRlc.am typename "\"simu5g.stack.rlc.LteRlcAm\""
par DummyScenario.car[1].cellularNic.nrRlc.mux typename "\"simu5g.stack.rlc.LteRlcMux\""
par DummyScenario.car[1].cellularNic.nrRlc typename "\"simu5g.stack.rlc.LteRlc\""
par DummyScenario.car[1].cellularNic.nrRlc LteRlcUmType "\"LteRlcUm\""
par DummyScenario.car[1].cellularNic.nrRlc d2dCapable true
par DummyScenario.car[1].cellularNic.nrRlc umType "\"LteRlcUmD2D\""
par DummyScenario.car[1].cellularNic.nrMac typename "\"simu5g.stack.mac.NRMacUe\""
par DummyScenario.car[1].cellularNic.nrMac interfaceTableModule "\"DummyScenario.car[1].interfaceTable\""
par DummyScenario.car[1].cellularNic.nrMac queueSize 2097152B
attr unit B
par DummyScenario.car[1].cellularNic.nrMac muMimo true
par DummyScenario.car[1].cellularNic.nrMac harqProcesses 8
par DummyScenario.car[1].cellularNic.nrMac maxHarqRtx 3
par DummyScenario.car[1].cellularNic.nrMac harqFbEvaluationTimer 4
par DummyScenario.car[1].cellularNic.nrMac statDisplay false
par DummyScenario.car[1].cellularNic.nrMac usePreconfiguredTxParams false
par DummyScenario.car[1].cellularNic.nrMac d2dCqi 7
par DummyScenario.car[1].cellularNic.nrPhy typename "\"simu5g.stack.phy.NRPhyUe\""
par DummyScenario.car[1].cellularNic.nrPhy ueTxPower 26
par DummyScenario.car[1].cellularNic.nrPhy eNodeBTxPower 46
par DummyScenario.car[1].cellularNic.nrPhy microTxPower 30
par DummyScenario.car[1].cellularNic.nrPhy txDirection "\"OMNI\""
par DummyScenario.car[1].cellularNic.nrPhy txAngle 0
par DummyScenario.car[1].cellularNic.nrPhy dynamicCellAssociation true
par DummyScenario.car[1].cellularNic.nrPhy enableHandover true
par DummyScenario.car[1].cellularNic.nrPhy handoverLatency 0.05s
attr unit s
par DummyScenario.car[1].cellularNic.nrPhy enableMulticastD2DRangeCheck false
par DummyScenario.car[1].cellularNic.nrPhy multicastD2DRange 1000m
attr unit m
par DummyScenario.car[1].cellularNic.nrPhy minRssiDefault true
par DummyScenario.car[1].cellularNic.nrPhy minRssi -99dB
attr unit dB
par DummyScenario.car[1].cellularNic.nrPhy d2dTxPower 26
par DummyScenario.car[1].cellularNic.nrPhy d2dMulticastCaptureEffect true
par DummyScenario.car[1].cellularNic.nrPhy d2dMulticastCaptureEffectFactor "\"RSRP\""
par DummyScenario.car[1].cellularNic.nrChannelModel[0] typename "\"simu5g.stack.phy.ChannelModel.NRChannelModel\""
par DummyScenario.car[1].cellularNic.nrChannelModel[0] componentCarrierIndex 0
par DummyScenario.car[1].cellularNic.nrChannelModel[0] shadowing true
par DummyScenario.car[1].cellularNic.nrChannelModel[0] scenario "\"URBAN_MACROCELL\""
par DummyScenario.car[1].cellularNic.nrChannelModel[0] nodeb_height 25
par DummyScenario.car[1].cellularNic.nrChannelModel[0] building_height 20
par DummyScenario.car[1].cellularNic.nrChannelModel[0] inside_building false
par DummyScenario.car[1].cellularNic.nrChannelModel[0] street_wide 20
par DummyScenario.car[1].cellularNic.nrChannelModel[0] ue_height 1.5
par DummyScenario.car[1].cellularNic.nrChannelModel[0] tolerateMaxDistViolation false
par DummyScenario.car[1].cellularNic.nrChannelModel[0] useTorus false
par DummyScenario.car[1].cellularNic.nrChannelModel[0] correlation_distance 50
par DummyScenario.car[1].cellularNic.nrChannelModel[0] targetBler 0.01
par DummyScenario.car[1].cellularNic.nrChannelModel[0] harqReduction 0.2
par DummyScenario.car[1].cellularNic.nrChannelModel[0] lambdaMinTh 0.02
par DummyScenario.car[1].cellularNic.nrChannelModel[0] lambdaMaxTh 0.2
par DummyScenario.car[1].cellularNic.nrChannelModel[0] lambdaRatioTh 20
par DummyScenario.car[1].cellularNic.nrChannelModel[0] antennaGainUe 0
par DummyScenario.car[1].cellularNic.nrChannelModel[0] antennGainEnB 18
par DummyScenario.car[1].cellularNic.nrChannelModel[0] antennGainMicro 5
par DummyScenario.car[1].cellularNic.nrChannelModel[0] thermalNoise -104.5
par DummyScenario.car[1].cellularNic.nrChannelModel[0] ue_noise_figure 7
par DummyScenario.car[1].cellularNic.nrChannelModel[0] bs_noise_figure 5
par DummyScenario.car[1].cellularNic.nrChannelModel[0] cable_loss 2
par DummyScenario.car[1].cellularNic.nrChannelModel[0] dynamic_los false
par DummyScenario.car[1].cellularNic.nrChannelModel[0] fixed_los false
par DummyScenario.car[1].cellularNic.nrChannelModel[0] fading true
par DummyScenario.car[1].cellularNic.nrChannelModel[0] fading_type "\"JAKES\""
par DummyScenario.car[1].cellularNic.nrChannelModel[0] fading_paths 6
par DummyScenario.car[1].cellularNic.nrChannelModel[0] delay_rms 3.63e-07
par DummyScenario.car[1].cellularNic.nrChannelModel[0] bgCell_interference true
par DummyScenario.car[1].cellularNic.nrChannelModel[0] extCell_interference true
par DummyScenario.car[1].cellularNic.nrChannelModel[0] downlink_interference false
par DummyScenario.car[1].cellularNic.nrChannelModel[0] uplink_interference false
par DummyScenario.car[1].cellularNic.nrChannelModel[0] d2d_interference true
par DummyScenario.car[1].cellularNic.nrChannelModel[0] enable_extCell_los true
par DummyScenario.car[1].cellularNic.nrChannelModel[0] useRsrqFromLog false
par DummyScenario.car[1].cellularNic.nrChannelModel[0] rsrqShift 22
par DummyScenario.car[1].cellularNic.nrChannelModel[0] rsrqScale 1
par DummyScenario.car[1].cellularNic.nrChannelModel[0] collectSinrStatistics true
par DummyScenario.car[1].cellularNic.nrDlFbGen typename "\"simu5g.stack.phy.feedback.LteDlFeedbackGenerator\""
par DummyScenario.car[1].cellularNic.nrDlFbGen feedbackType "\"ALLBANDS\""
par DummyScenario.car[1].cellularNic.nrDlFbGen rbAllocationType "\"localized\""
par DummyScenario.car[1].cellularNic.nrDlFbGen fbPeriod 6
par DummyScenario.car[1].cellularNic.nrDlFbGen fbDelay 1
par DummyScenario.car[1].cellularNic.nrDlFbGen usePeriodic true
par DummyScenario.car[1].cellularNic.nrDlFbGen initialTxMode "\"SINGLE_ANTENNA_PORT0\""
par DummyScenario.car[1].cellularNic.nrDlFbGen feedbackGeneratorType "\"IDEAL\""
par DummyScenario.car[1].cellularNic typename "\"simu5g.stack.NRNicUe\""
par DummyScenario.car[1].cellularNic displayStringTextFormat "\"%a (%i)\\n%m\""
par DummyScenario.car[1].cellularNic recordPcap false
par DummyScenario.car[1].cellularNic numPcapRecorders 0
par DummyScenario.car[1].cellularNic interfaceTableModule "\"DummyScenario.car[1].interfaceTable\""
par DummyScenario.car[1].cellularNic routingTableModule "\"DummyScenario.car[1].ipv4.routingTable\""
par DummyScenario.car[1].cellularNic LtePdcpRrcType "\"NRPdcpRrcUe\""
par DummyScenario.car[1].cellularNic LteMacType "\"LteMacUeD2D\""
par DummyScenario.car[1].cellularNic PacketFlowManagerType "\"PacketFlowManagerUe\""
par DummyScenario.car[1].cellularNic hasRNISupport false
par DummyScenario.car[1].cellularNic LtePhyType "\"NRPhyUe\""
par DummyScenario.car[1].cellularNic nodeType "\"UE\""
par DummyScenario.car[1].cellularNic processingDelayIn 0s
attr unit s
par DummyScenario.car[1].cellularNic processingDelayOut 0s
attr unit s
par DummyScenario.car[1].cellularNic LteChannelModelType "\"LteRealisticChannelModel\""
par DummyScenario.car[1].cellularNic d2dCapable true
par DummyScenario.car[1].cellularNic dualConnectivityEnabled false
par DummyScenario.car[1].cellularNic numCarriers 1
par DummyScenario.car[1].cellularNic address "\"0A-AA-00-00-00-05\""
par DummyScenario.car[1].cellularNic d2dInitialMode false
par DummyScenario.car[1].cellularNic NRMacType "\"NRMacUe\""
par DummyScenario.car[1].cellularNic NRPhyType "\"NRPhyUe\""
par DummyScenario.car[1].cellularNic NRChannelModelType "\"NRChannelModel\""
par DummyScenario.car[1].cellularNic NRPacketFlowManagerType "\"NRPacketFlowManagerUe\""
par DummyScenario.car[1].cellularNic numNRCarriers 1
par DummyScenario.car[1].at typename "\"inet.common.MessageDispatcher\""
par DummyScenario.car[1].at displayStringTextFormat "\"processed %p pk (%l)\""
par DummyScenario.car[1].tn typename "\"inet.common.MessageDispatcher\""
par DummyScenario.car[1].tn displayStringTextFormat "\"processed %p pk (%l)\""
par DummyScenario.car[1].nl typename "\"inet.common.MessageDispatcher\""
par DummyScenario.car[1].nl displayStringTextFormat "\"processed %p pk (%l)\""
par DummyScenario.car[1].configurator typename "\"inet.networklayer.configurator.ipv4.HostAutoConfigurator\""
par DummyScenario.car[1].configurator interfaceTableModule "\"DummyScenario.car[1].interfaceTable\""
par DummyScenario.car[1].configurator interfaces "\"wlan\""
par DummyScenario.car[1].configurator addressBase "\"10.0.0.0\""
par DummyScenario.car[1].configurator netmask "\"255.0.0.0\""
par DummyScenario.car[1].configurator mcastGroups "\"\""
par DummyScenario.car[1] typename "\"simu5g.nodes.cars.NRCar\""
par DummyScenario.car[1] mobilityType "\"VeinsInetMobility\""
par DummyScenario.car[1] numApps 0
par DummyScenario.car[1] hasUdp true
par DummyScenario.car[1] hasTcp true
par DummyScenario.car[1] hasSctp false
par DummyScenario.car[1] nodeType "\"UE\""
par DummyScenario.car[1] masterId 0
par DummyScenario.car[1] macNodeId 1026
par DummyScenario.car[1] macCellId 0
par DummyScenario.car[1] nicType "\"NRNicUe\""
par DummyScenario.car[1] hasIpv4 true
par DummyScenario.car[1] hasIpv6 false
par DummyScenario.car[1] numEthInterfaces 0
par DummyScenario.car[1] extHostAddress "\"\""
par DummyScenario.car[1] numLoInterfaces 1
par DummyScenario.car[1] numPcapRecorders 0
par DummyScenario.car[1] hasRNISupport false
par DummyScenario.car[1] nrMasterId 1
par DummyScenario.car[1] nrMacNodeId 2050
par DummyScenario.car[1] nrMacCellId 1
par DummyScenario.car[2].interfaceTable typename "\"inet.networklayer.common.InterfaceTable\""
par DummyScenario.car[2].interfaceTable displayAddresses false
par DummyScenario.car[2].mobility typename "\"org.car2x.veins.subprojects.veins_inet.VeinsInetMobility\""
par DummyScenario.car[2].mobility subjectModule "\"^\""
par DummyScenario.car[2].mobility coordinateSystemModule "\"\""
par DummyScenario.car[2].mobility displayStringTextFormat "\"p: %p\\nv: %v\""
par DummyScenario.car[2].mobility updateDisplayString true
par DummyScenario.car[2].mobility constraintAreaMinX "-inf m"
attr unit m
par DummyScenario.car[2].mobility constraintAreaMinY "-inf m"
attr unit m
par DummyScenario.car[2].mobility constraintAreaMinZ "-inf m"
attr unit m
par DummyScenario.car[2].mobility constraintAreaMaxX "inf m"
attr unit m
par DummyScenario.car[2].mobility constraintAreaMaxY "inf m"
attr unit m
par DummyScenario.car[2].mobility constraintAreaMaxZ "inf m"
attr unit m
par DummyScenario.car[2].mobility initFromDisplayString true
par DummyScenario.car[2].udp typename "\"inet.transportlayer.udp.Udp\""
par DummyScenario.car[2].udp interfaceTableModule "\"DummyScenario.car[2].interfaceTable\""
par DummyScenario.car[2].udp icmpModule "\"^.ipv4.icmp\""
par DummyScenario.car[2].udp icmpv6Module "\"^.ipv6.icmpv6\""
par DummyScenario.car[2].udp crcMode "\"declared\""
attr enum disabled,declared,computed
par DummyScenario.car[2].tcp typename "\"inet.transportlayer.tcp.Tcp\""
par DummyScenario.car[2].tcp crcMode "\"declared\""
attr enum declared,computed
par DummyScenario.car[2].tcp advertisedWindow 7504
par DummyScenario.car[2].tcp delayedAcksEnabled false
par DummyScenario.car[2].tcp nagleEnabled true
par DummyScenario.car[2].tcp limitedTransmitEnabled false
par DummyScenario.car[2].tcp increasedIWEnabled false
par DummyScenario.car[2].tcp sackSupport false
par DummyScenario.car[2].tcp windowScalingSupport false
par DummyScenario.car[2].tcp windowScalingFactor -1
par DummyScenario.car[2].tcp timestampSupport false
par DummyScenario.car[2].tcp mss 536
par DummyScenario.car[2].tcp msl 120s
attr unit s
par DummyScenario.car[2].tcp tcpAlgorithmClass "\"TcpReno\""
attr enum TcpVegas,TcpWestwood,TcpNewReno,TcpReno,TcpTahoe,TcpNoCongestionControl
par DummyScenario.car[2].tcp useDataNotification false
par DummyScenario.car[2].tcp dupthresh 3
par DummyScenario.car[2].tcp initialSsthresh 4294967295
par DummyScenario.car[2].tcp stopOperationExtraTime 0s
attr unit s
par DummyScenario.car[2].tcp stopOperationTimeout 2s
attr unit s
par DummyScenario.car[2].tcp ecnWillingness false
par DummyScenario.car[2].tcp dctcpGamma 0.0625
par DummyScenario.car[2].ipv4.transportIn.channel typename "\"ned.IdealChannel\""
par DummyScenario.car[2].ipv4.up.out[0].channel typename "\"ned.IdealChannel\""
par DummyScenario.car[2].ipv4.lp.out[2].channel typename "\"ned.IdealChannel\""
par DummyScenario.car[2].ipv4.ifIn.channel typename "\"ned.IdealChannel\""
par DummyScenario.car[2].ipv4.configurator typename "\"inet.networklayer.configurator.ipv4.HostAutoConfigurator\""
par DummyScenario.car[2].ipv4.configurator interfaceTableModule "\"DummyScenario.car[2].interfaceTable\""
par DummyScenario.car[2].ipv4.configurator interfaces "\"wlan\""
par DummyScenario.car[2].ipv4.configurator addressBase "\"10.0.0.0\""
par DummyScenario.car[2].ipv4.configurator netmask "\"255.0.0.0\""
par DummyScenario.car[2].ipv4.configurator mcastGroups "\"\""
par DummyScenario.car[2].ipv4.routingTable typename "\"inet.networklayer.ipv4.Ipv4RoutingTable\""
par DummyScenario.car[2].ipv4.routingTable interfaceTableModule "\"DummyScenario.car[2].interfaceTable\""
par DummyScenario.car[2].ipv4.routingTable routerId "\"auto\""
par DummyScenario.car[2].ipv4.routingTable netmaskRoutes "\"*\""
par DummyScenario.car[2].ipv4.routingTable forwarding false
par DummyScenario.car[2].ipv4.routingTable multicastForwarding false
par DummyScenario.car[2].ipv4.routingTable useAdminDist false
par DummyScenario.car[2].ipv4.routingTable routingFile "\"\""
par DummyScenario.car[2].ipv4.natTable typename "\"inet.networklayer.ipv4.Ipv4NatTable\""
par DummyScenario.car[2].ipv4.natTable networkProtocolModule "\"^.ip\""
par DummyScenario.car[2].ipv4.natTable config "<config/> at content:1"
par DummyScenario.car[2].ipv4.up typename "\"inet.common.MessageDispatcher\""
par DummyScenario.car[2].ipv4.up displayStringTextFormat "\"processed %p pk (%l)\""
par DummyScenario.car[2].ipv4.igmp typename "\"inet.networklayer.ipv4.Igmpv2\""
par DummyScenario.car[2].ipv4.igmp interfaceTableModule "\"DummyScenario.car[2].interfaceTable\""
par DummyScenario.car[2].ipv4.igmp routingTableModule "\"DummyScenario.car[2].ipv4.routingTable\""
par DummyScenario.car[2].ipv4.igmp crcMode "\"declared\""
attr enum declared,computed
par DummyScenario.car[2].ipv4.igmp enabled true
par DummyScenario.car[2].ipv4.igmp robustnessVariable 2
par DummyScenario.car[2].ipv4.igmp queryInterval 125s
attr unit s
par DummyScenario.car[2].ipv4.igmp queryResponseInterval 10s
attr unit s
par DummyScenario.car[2].ipv4.igmp groupMembershipInterval 260s
attr unit s
par DummyScenario.car[2].ipv4.igmp otherQuerierPresentInterval 255s
attr unit s
par DummyScenario.car[2].ipv4.igmp startupQueryInterval 31.25s
attr unit s
par DummyScenario.car[2].ipv4.igmp startupQueryCount 2
par DummyScenario.car[2].ipv4.igmp lastMemberQueryInterval 1s
attr unit s
par DummyScenario.car[2].ipv4.igmp lastMemberQueryCount 2
par DummyScenario.car[2].ipv4.igmp unsolicitedReportInterval 10s
attr unit s
par DummyScenario.car[2].ipv4.icmp typename "\"inet.networklayer.ipv4.Icmp\""
par DummyScenario.car[2].ipv4.icmp interfaceTableModule "\"DummyScenario.car[2].interfaceTable\""
par DummyScenario.car[2].ipv4.icmp routingTableModule "\"DummyScenario.car[2].ipv4.routingTable\""
par DummyScenario.car[2].ipv4.icmp crcMode "\"declared\""
attr enum declared,computed
par DummyScenario.car[2].ipv4.icmp quoteLength 8B
attr unit B
par DummyScenario.car[2].ipv4.mp typename "\"inet.common.MessageDispatcher\""
par DummyScenario.car[2].ipv4.mp displayStringTextFormat "\"processed %p pk (%l)\""
par DummyScenario.car[2].ipv4.ip typename "\"inet.networklayer.ipv4.Ipv4\""
par DummyScenario.car[2].ipv4.ip interfaceTableModule "\"DummyScenario.car[2].interfaceTable\""
par DummyScenario.car[2].ipv4.ip routingTableModule "\"DummyScenario.car[2].ipv4.routingTable\""
par DummyScenario.car[2].ipv4.ip arpModule "\"DummyScenario.car[2].ipv4.arp\""
par DummyScenario.car[2].ipv4.ip icmpModule "\"DummyScenario.car[2].ipv4.icmp\""
par DummyScenario.car[2].ipv4.ip crcMode "\"declared\""
attr enum declared,computed
par DummyScenario.car[2].ipv4.ip timeToLive 32
par DummyScenario.car[2].ipv4.ip multicastTimeToLive 32
par DummyScenario.car[2].ipv4.ip fragmentTimeout 60s
attr unit s
par DummyScenario.car[2].ipv4.ip limitedBroadcast false
par DummyScenario.car[2].ipv4.ip directBroadcastInterfaces "\"\""
par DummyScenario.car[2].ipv4.arp typename "\"inet.networklayer.arp.ipv4.Arp\""
par DummyScenario.car[2].ipv4.arp interfaceTableModule "\"DummyScenario.car[2].interfaceTable\""
par DummyScenario.car[2].ipv4.arp routingTableModule "\"DummyScenario.car[2].ipv4.routingTable\""
par DummyScenario.car[2].ipv4.arp retryTimeout 1s
attr unit s
par DummyScenario.car[2].ipv4.arp retryCount 3
par DummyScenario.car[2].ipv4.arp cacheTimeout 120s
attr unit s
par DummyScenario.car[2].ipv4.arp proxyArpInterfaces "\"*\""
par DummyScenario.car[2].ipv4.lp typename "\"inet.common.MessageDispatcher\""
par DummyScenario.car[2].ipv4.lp displayStringTextFormat "\"processed %p pk (%l)\""
par DummyScenario.car[2].ipv4 typename "\"inet.networklayer.ipv4.Ipv4NetworkLayer\""
par DummyScenario.car[2].ipv4 forwarding false
par DummyScenario.car[2].ipv4 multicastForwarding false
par DummyScenario.car[2].ipv4 interfaceTableModule "\"DummyScenario.car[2].interfaceTable\""
par DummyScenario.car[2].ipv4 displayStringTextFormat "\"%i\""
par DummyScenario.car[2].lo[0].upperLayerIn.channel typename "\"ned.IdealChannel\""
par DummyScenario.car[2].lo[0].lo.upperLayerOut.channel typename "\"ned.IdealChannel\""
par DummyScenario.car[2].lo[0].lo typename "\"inet.linklayer.loopback.Loopback\""
par DummyScenario.car[2].lo[0].lo interfaceTableModule "\"DummyScenario.car[2].interfaceTable\""
par DummyScenario.car[2].lo[0].lo mtu 4470B
attr unit B
par DummyScenario.car[2].lo[0] typename "\"inet.linklayer.loopback.LoopbackInterface\""
par DummyScenario.car[2].lo[0] displayStringTextFormat "\"%a (%i)\\n%m\""
par DummyScenario.car[2].lo[0] recordPcap false
par DummyScenario.car[2].lo[0] numPcapRecorders 0
par DummyScenario.car[2].lo[0] interfaceTableModule "\"DummyScenario.car[2].interfaceTable\""
par DummyScenario.car[2].cellularNic.ip2nic.upperLayerOut.channel typename "\"ned.DelayChannel\""
par DummyScenario.car[2].cellularNic.ip2nic.upperLayerOut.channel disabled false
par DummyScenario.car[2].cellularNic.ip2nic.upperLayerOut.channel delay 0s
attr unit s
par DummyScenario.car[2].cellularNic.upperLayerIn.channel typename "\"ned.DelayChannel\""
par DummyScenario.car[2].cellularNic.upperLayerIn.channel disabled false
par DummyScenario.car[2].cellularNic.upperLayerIn.channel delay 0s
attr unit s
par DummyScenario.car[2].cellularNic.ip2nic typename "\"simu5g.stack.ip2nic.IP2Nic\""
par DummyScenario.car[2].cellularNic.ip2nic nodeType "\"UE\""
par DummyScenario.car[2].cellularNic.ip2nic interfaceTableModule "\"DummyScenario.car[2].interfaceTable\""
par DummyScenario.car[2].cellularNic.ip2nic routingTableModule "\"DummyScenario.car[2].ipv4.routingTable\""
par DummyScenario.car[2].cellularNic.pdcpRrc typename "\"simu5g.stack.pdcp_rrc.NRPdcpRrcUe\""
par DummyScenario.car[2].cellularNic.pdcpRrc headerCompressedSize -1B
attr unit B
par DummyScenario.car[2].cellularNic.pdcpRrc conversationalRlc 1
attr enum TM,UM,AM,UNKNOWN_RLC_TYPE
par DummyScenario.car[2].cellularNic.pdcpRrc streamingRlc 1
attr enum TM,UM,AM,UNKNOWN_RLC_TYPE
par DummyScenario.car[2].cellularNic.pdcpRrc interactiveRlc 1
attr enum TM,UM,AM,UNKNOWN_RLC_TYPE
par DummyScenario.car[2].cellularNic.pdcpRrc backgroundRlc 1
attr enum TM,UM,AM,UNKNOWN_RLC_TYPE
par DummyScenario.car[2].cellularNic.rlc.tm typename "\"simu5g.stack.rlc.LteRlcTm\""
par DummyScenario.car[2].cellularNic.rlc.tm queueSize 2097152B
attr unit B
par DummyScenario.car[2].cellularNic.rlc.um typename "\"simu5g.stack.rlc.LteRlcUmD2D\""
par DummyScenario.car[2].cellularNic.rlc.um queueSize 2097152B
attr unit B
par DummyScenario.car[2].cellularNic.rlc.um mapAllLcidsToSingleBearer false
par DummyScenario.car[2].cellularNic.rlc.am typename "\"simu5g.stack.rlc.LteRlcAm\""
par DummyScenario.car[2].cellularNic.rlc.mux typename "\"simu5g.stack.rlc.LteRlcMux\""
par DummyScenario.car[2].cellularNic.rlc typename "\"simu5g.stack.rlc.LteRlc\""
par DummyScenario.car[2].cellularNic.rlc LteRlcUmType "\"LteRlcUm\""
par DummyScenario.car[2].cellularNic.rlc d2dCapable true
par DummyScenario.car[2].cellularNic.rlc umType "\"LteRlcUmD2D\""
par DummyScenario.car[2].cellularNic.mac typename "\"simu5g.stack.mac.LteMacUeD2D\""
par DummyScenario.car[2].cellularNic.mac interfaceTableModule "\"DummyScenario.car[2].interfaceTable\""
par DummyScenario.car[2].cellularNic.mac queueSize 2097152B
attr unit B
par DummyScenario.car[2].cellularNic.mac muMimo true
par DummyScenario.car[2].cellularNic.mac harqProcesses 8
par DummyScenario.car[2].cellularNic.mac maxHarqRtx 3
par DummyScenario.car[2].cellularNic.mac harqFbEvaluationTimer 4
par DummyScenario.car[2].cellularNic.mac statDisplay false
par DummyScenario.car[2].cellularNic.mac usePreconfiguredTxParams false
par DummyScenario.car[2].cellularNic.mac d2dCqi 7
par DummyScenario.car[2].cellularNic.phy typename "\"simu5g.stack.phy.NRPhyUe\""
par DummyScenario.car[2].cellularNic.phy ueTxPower 26
par DummyScenario.car[2].cellularNic.phy eNodeBTxPower 46
par DummyScenario.car[2].cellularNic.phy microTxPower 30
par DummyScenario.car[2].cellularNic.phy txDirection "\"OMNI\""
par DummyScenario.car[2].cellularNic.phy txAngle 0
par DummyScenario.car[2].cellularNic.phy dynamicCellAssociation false
par DummyScenario.car[2].cellularNic.phy enableHandover false
par DummyScenario.car[2].cellularNic.phy handoverLatency 0.05s
attr unit s
par DummyScenario.car[2].cellularNic.phy enableMulticastD2DRangeCheck false
par DummyScenario.car[2].cellularNic.phy multicastD2DRange 1000m
attr unit m
par DummyScenario.car[2].cellularNic.phy minRssiDefault true
par DummyScenario.car[2].cellularNic.phy minRssi -99dB
attr unit dB
par DummyScenario.car[2].cellularNic.phy d2dTxPower 26
par DummyScenario.car[2].cellularNic.phy d2dMulticastCaptureEffect true
par DummyScenario.car[2].cellularNic.phy d2dMulticastCaptureEffectFactor "\"RSRP\""
par DummyScenario.car[2].cellularNic.channelModel[0] typename "\"simu5g.stack.phy.ChannelModel.LteRealisticChannelModel\""
par DummyScenario.car[2].cellularNic.channelModel[0] componentCarrierIndex 0
par DummyScenario.car[2].cellularNic.channelModel[0] shadowing true
par DummyScenario.car[2].cellularNic.channelModel[0] scenario "\"URBAN_MACROCELL\""
par DummyScenario.car[2].cellularNic.channelModel[0] nodeb_height 25
par DummyScenario.car[2].cellularNic.channelModel[0] building_height 20
par DummyScenario.car[2].cellularNic.channelModel[0] inside_building false
par DummyScenario.car[2].cellularNic.channelModel[0] street_wide 20
par DummyScenario.car[2].cellularNic.channelModel[0] ue_height 1.5
par DummyScenario.car[2].cellularNic.channelModel[0] tolerateMaxDistViolation false
par DummyScenario.car[2].cellularNic.channelModel[0] useTorus false
par DummyScenario.car[2].cellularNic.channelModel[0] correlation_distance 50
par DummyScenario.car[2].cellularNic.channelModel[0] targetBler 0.01
par DummyScenario.car[2].cellularNic.channelModel[0] harqReduction 0.2
par DummyScenario.car[2].cellularNic.channelModel[0] lambdaMinTh 0.02
par DummyScenario.car[2].cellularNic.channelModel[0] lambdaMaxTh 0.2
par DummyScenario.car[2].cellularNic.channelModel[0] lambdaRatioTh 20
par DummyScenario.car[2].cellularNic.channelModel[0] antennaGainUe 0
par DummyScenario.car[2].cellularNic.channelModel[0] antennGainEnB 18
par DummyScenario.car[2].cellularNic.channelModel[0] antennGainMicro 5
par DummyScenario.car[2].cellularNic.channelModel[0] thermalNoise -104.5
par DummyScenario.car[2].cellularNic.channelModel[0] ue_noise_figure 7
par DummyScenario.car[2].cellularNic.channelModel[0] bs_noise_figure 5
par DummyScenario.car[2].cellularNic.channelModel[0] cable_loss 2
par DummyScenario.car[2].cellularNic.channelModel[0] dynamic_los false
par DummyScenario.car[2].cellularNic.channelModel[0] fixed_los false
par DummyScenario.car[2].cellularNic.channelModel[0] fading true
par DummyScenario.car[2].cellularNic.channelModel[0] fading_type "\"JAKES\""
par DummyScenario.car[2].cellularNic.channelModel[0] fading_paths 6
par DummyScenario.car[2].cellularNic.channelModel[0] delay_rms 3.63e-07
par DummyScenario.car[2].cellularNic.channelModel[0] bgCell_interference true
par DummyScenario.car[2].cellularNic.channelModel[0] extCell_interference true
par DummyScenario.car[2].cellularNic.channelModel[0] downlink_interference false
par DummyScenario.car[2].cellularNic.channelModel[0] uplink_interference false
par DummyScenario.car[2].cellularNic.channelModel[0] d2d_interference true
par DummyScenario.car[2].cellularNic.channelModel[0] enable_extCell_los true
par DummyScenario.car[2].cellularNic.channelModel[0] useRsrqFromLog false
par DummyScenario.car[2].cellularNic.channelModel[0] rsrqShift 22
par DummyScenario.car[2].cellularNic.channelModel[0] rsrqScale 1
par DummyScenario.car[2].cellularNic.channelModel[0] collectSinrStatistics true
par DummyScenario.car[2].cellularNic.dlFbGen typename "\"simu5g.stack.phy.feedback.LteDlFeedbackGenerator\""
par DummyScenario.car[2].cellularNic.dlFbGen feedbackType "\"ALLBANDS\""
par DummyScenario.car[2].cellularNic.dlFbGen rbAllocationType "\"localized\""
par DummyScenario.car[2].cellularNic.dlFbGen fbPeriod 6
par DummyScenario.car[2].cellularNic.dlFbGen fbDelay 1
par DummyScenario.car[2].cellularNic.dlFbGen usePeriodic true
par DummyScenario.car[2].cellularNic.dlFbGen initialTxMode "\"SINGLE_ANTENNA_PORT0\""
par DummyScenario.car[2].cellularNic.dlFbGen feedbackGeneratorType "\"IDEAL\""
par DummyScenario.car[2].cellularNic.nrRlc.tm typename "\"simu5g.stack.rlc.LteRlcTm\""
par DummyScenario.car[2].cellularNic.nrRlc.tm queueSize 2097152B
attr unit B
par DummyScenario.car[2].cellularNic.nrRlc.um typename "\"simu5g.stack.rlc.LteRlcUmD2D\""
par DummyScenario.car[2].cellularNic.nrRlc.um queueSize 2097152B
attr unit B
par DummyScenario.car[2].cellularNic.nrRlc.um mapAllLcidsToSingleBearer false
par DummyScenario.car[2].cellularNic.nrRlc.am typename "\"simu5g.stack.rlc.LteRlcAm\""
par DummyScenario.car[2].cellularNic.nrRlc.mux typename "\"simu5g.stack.rlc.LteRlcMux\""
par DummyScenario.car[2].cellularNic.nrRlc typename "\"simu5g.stack.rlc.LteRlc\""
par DummyScenario.car[2].cellularNic.nrRlc LteRlcUmType "\"LteRlcUm\""
par DummyScenario.car[2].cellularNic.nrRlc d2dCapable true
par DummyScenario.car[2].cellularNic.nrRlc umType "\"LteRlcUmD2D\""
par DummyScenario.car[2].cellularNic.nrMac typename "\"simu5g.stack.mac.NRMacUe\""
par DummyScenario.car[2].cellularNic.nrMac interfaceTableModule "\"DummyScenario.car[2].interfaceTable\""
par DummyScenario.car[2].cellularNic.nrMac queueSize 2097152B
attr unit B
par DummyScenario.car[2].cellularNic.nrMac muMimo true
par DummyScenario.car[2].cellularNic.nrMac harqProcesses 8
par DummyScenario.car[2].cellularNic.nrMac maxHarqRtx 3
par DummyScenario.car[2].cellularNic.nrMac harqFbEvaluationTimer 4
par DummyScenario.car[2].cellularNic.nrMac statDisplay false
par DummyScenario.car[2].cellularNic.nrMac usePreconfiguredTxParams false
par DummyScenario.car[2].cellularNic.nrMac d2dCqi 7
par DummyScenario.car[2].cellularNic.nrPhy typename "\"simu5g.stack.phy.NRPhyUe\""
par DummyScenario.car[2].cellularNic.nrPhy ueTxPower 26
par DummyScenario.car[2].cellularNic.nrPhy eNodeBTxPower 46
par DummyScenario.car[2].cellularNic.nrPhy microTxPower 30
par DummyScenario.car[2].cellularNic.nrPhy txDirection "\"OMNI\""
par DummyScenario.car[2].cellularNic.nrPhy txAngle 0
par DummyScenario.car[2].cellularNic.nrPhy dynamicCellAssociation true
par DummyScenario.car[2].cellularNic.nrPhy enableHandover true
par DummyScenario.car[2].cellularNic.nrPhy handoverLatency 0.05s
attr unit s
par DummyScenario.car[2].cellularNic.nrPhy enableMulticastD2DRangeCheck false
par DummyScenario.car[2].cellularNic.nrPhy multicastD2DRange 1000m
attr unit m
par DummyScenario.car[2].cellularNic.nrPhy minRssiDefault true
par DummyScenario.car[2].cellularNic.nrPhy minRssi -99dB
attr unit dB
par DummyScenario.car[2].cellularNic.nrPhy d2dTxPower 26
par DummyScenario.car[2].cellularNic.nrPhy d2dMulticastCaptureEffect true
par DummyScenario.car[2].cellularNic.nrPhy d2dMulticastCaptureEffectFactor "\"RSRP\""
par DummyScenario.car[2].cellularNic.nrChannelModel[0] typename "\"simu5g.stack.phy.ChannelModel.NRChannelModel\""
par DummyScenario.car[2].cellularNic.nrChannelModel[0] componentCarrierIndex 0
par DummyScenario.car[2].cellularNic.nrChannelModel[0] shadowing true
par DummyScenario.car[2].cellularNic.nrChannelModel[0] scenario "\"URBAN_MACROCELL\""
par DummyScenario.car[2].cellularNic.nrChannelModel[0] nodeb_height 25
par DummyScenario.car[2].cellularNic.nrChannelModel[0] building_height 20
par DummyScenario.car[2].cellularNic.nrChannelModel[0] inside_building false
par DummyScenario.car[2].cellularNic.nrChannelModel[0] street_wide 20
par DummyScenario.car[2].cellularNic.nrChannelModel[0] ue_height 1.5
par DummyScenario.car[2].cellularNic.nrChannelModel[0] tolerateMaxDistViolation false
par DummyScenario.car[2].cellularNic.nrChannelModel[0] useTorus false
par DummyScenario.car[2].cellularNic.nrChannelModel[0] correlation_distance 50
par DummyScenario.car[2].cellularNic.nrChannelModel[0] targetBler 0.01
par DummyScenario.car[2].cellularNic.nrChannelModel[0] harqReduction 0.2
par DummyScenario.car[2].cellularNic.nrChannelModel[0] lambdaMinTh 0.02
par DummyScenario.car[2].cellularNic.nrChannelModel[0] lambdaMaxTh 0.2
par DummyScenario.car[2].cellularNic.nrChannelModel[0] lambdaRatioTh 20
par DummyScenario.car[2].cellularNic.nrChannelModel[0] antennaGainUe 0
par DummyScenario.car[2].cellularNic.nrChannelModel[0] antennGainEnB 18
par DummyScenario.car[2].cellularNic.nrChannelModel[0] antennGainMicro 5
par DummyScenario.car[2].cellularNic.nrChannelModel[0] thermalNoise -104.5
par DummyScenario.car[2].cellularNic.nrChannelModel[0] ue_noise_figure 7
par DummyScenario.car[2].cellularNic.nrChannelModel[0] bs_noise_figure 5
par DummyScenario.car[2].cellularNic.nrChannelModel[0] cable_loss 2
par DummyScenario.car[2].cellularNic.nrChannelModel[0] dynamic_los false
par DummyScenario.car[2].cellularNic.nrChannelModel[0] fixed_los false
par DummyScenario.car[2].cellularNic.nrChannelModel[0] fading true
par DummyScenario.car[2].cellularNic.nrChannelModel[0] fading_type "\"JAKES\""
par DummyScenario.car[2].cellularNic.nrChannelModel[0] fading_paths 6
par DummyScenario.car[2].cellularNic.nrChannelModel[0] delay_rms 3.63e-07
par DummyScenario.car[2].cellularNic.nrChannelModel[0] bgCell_interference true
par DummyScenario.car[2].cellularNic.nrChannelModel[0] extCell_interference true
par DummyScenario.car[2].cellularNic.nrChannelModel[0] downlink_interference false
par DummyScenario.car[2].cellularNic.nrChannelModel[0] uplink_interference false
par DummyScenario.car[2].cellularNic.nrChannelModel[0] d2d_interference true
par DummyScenario.car[2].cellularNic.nrChannelModel[0] enable_extCell_los true
par DummyScenario.car[2].cellularNic.nrChannelModel[0] useRsrqFromLog false
par DummyScenario.car[2].cellularNic.nrChannelModel[0] rsrqShift 22
par DummyScenario.car[2].cellularNic.nrChannelModel[0] rsrqScale 1
par DummyScenario.car[2].cellularNic.nrChannelModel[0] collectSinrStatistics true
par DummyScenario.car[2].cellularNic.nrDlFbGen typename "\"simu5g.stack.phy.feedback.LteDlFeedbackGenerator\""
par DummyScenario.car[2].cellularNic.nrDlFbGen feedbackType "\"ALLBANDS\""
par DummyScenario.car[2].cellularNic.nrDlFbGen rbAllocationType "\"localized\""
par DummyScenario.car[2].cellularNic.nrDlFbGen fbPeriod 6
par DummyScenario.car[2].cellularNic.nrDlFbGen fbDelay 1
par DummyScenario.car[2].cellularNic.nrDlFbGen usePeriodic true
par DummyScenario.car[2].cellularNic.nrDlFbGen initialTxMode "\"SINGLE_ANTENNA_PORT0\""
par DummyScenario.car[2].cellularNic.nrDlFbGen feedbackGeneratorType "\"IDEAL\""
par DummyScenario.car[2].cellularNic typename "\"simu5g.stack.NRNicUe\""
par DummyScenario.car[2].cellularNic displayStringTextFormat "\"%a (%i)\\n%m\""
par DummyScenario.car[2].cellularNic recordPcap false
par DummyScenario.car[2].cellularNic numPcapRecorders 0
par DummyScenario.car[2].cellularNic interfaceTableModule "\"DummyScenario.car[2].interfaceTable\""
par DummyScenario.car[2].cellularNic routingTableModule "\"DummyScenario.car[2].ipv4.routingTable\""
par DummyScenario.car[2].cellularNic LtePdcpRrcType "\"NRPdcpRrcUe\""
par DummyScenario.car[2].cellularNic LteMacType "\"LteMacUeD2D\""
par DummyScenario.car[2].cellularNic PacketFlowManagerType "\"PacketFlowManagerUe\""
par DummyScenario.car[2].cellularNic hasRNISupport false
par DummyScenario.car[2].cellularNic LtePhyType "\"NRPhyUe\""
par DummyScenario.car[2].cellularNic nodeType "\"UE\""
par DummyScenario.car[2].cellularNic processingDelayIn 0s
attr unit s
par DummyScenario.car[2].cellularNic processingDelayOut 0s
attr unit s
par DummyScenario.car[2].cellularNic LteChannelModelType "\"LteRealisticChannelModel\""
par DummyScenario.car[2].cellularNic d2dCapable true
par DummyScenario.car[2].cellularNic dualConnectivityEnabled false
par DummyScenario.car[2].cellularNic numCarriers 1
par DummyScenario.car[2].cellularNic address "\"0A-AA-00-00-00-06\""
par DummyScenario.car[2].cellularNic d2dInitialMode false
par DummyScenario.car[2].cellularNic NRMacType "\"NRMacUe\""
par DummyScenario.car[2].cellularNic NRPhyType "\"NRPhyUe\""
par DummyScenario.car[2].cellularNic NRChannelModelType "\"NRChannelModel\""
par DummyScenario.car[2].cellularNic NRPacketFlowManagerType "\"NRPacketFlowManagerUe\""
par DummyScenario.car[2].cellularNic numNRCarriers 1
par DummyScenario.car[2].at typename "\"inet.common.MessageDispatcher\""
par DummyScenario.car[2].at displayStringTextFormat "\"processed %p pk (%l)\""
par DummyScenario.car[2].tn typename "\"inet.common.MessageDispatcher\""
par DummyScenario.car[2].tn displayStringTextFormat "\"processed %p pk (%l)\""
par DummyScenario.car[2].nl typename "\"inet.common.MessageDispatcher\""
par DummyScenario.car[2].nl displayStringTextFormat "\"processed %p pk (%l)\""
par DummyScenario.car[2].configurator typename "\"inet.networklayer.configurator.ipv4.HostAutoConfigurator\""
par DummyScenario.car[2].configurator interfaceTableModule "\"DummyScenario.car[2].interfaceTable\""
par DummyScenario.car[2].configurator interfaces "\"wlan\""
par DummyScenario.car[2].configurator addressBase "\"10.0.0.0\""
par DummyScenario.car[2].configurator netmask "\"255.0.0.0\""
par DummyScenario.car[2].configurator mcastGroups "\"\""
par DummyScenario.car[2] typename "\"simu5g.nodes.cars.NRCar\""
par DummyScenario.car[2] mobilityType "\"VeinsInetMobility\""
par DummyScenario.car[2] numApps 0
par DummyScenario.car[2] hasUdp true
par DummyScenario.car[2] hasTcp true
par DummyScenario.car[2] hasSctp false
par DummyScenario.car[2] nodeType "\"UE\""
par DummyScenario.car[2] masterId 0
par DummyScenario.car[2] macNodeId 1027
par DummyScenario.car[2] macCellId 0
par DummyScenario.car[2] nicType "\"NRNicUe\""
par DummyScenario.car[2] hasIpv4 true
par DummyScenario.car[2] hasIpv6 false
par DummyScenario.car[2] numEthInterfaces 0
par DummyScenario.car[2] extHostAddress "\"\""
par DummyScenario.car[2] numLoInterfaces 1
par DummyScenario.car[2] numPcapRecorders 0
par DummyScenario.car[2] hasRNISupport false
par DummyScenario.car[2] nrMasterId 1
par DummyScenario.car[2] nrMacNodeId 2051
par DummyScenario.car[2] nrMacCellId 1
par DummyScenario.car[5].interfaceTable typename "\"inet.networklayer.common.InterfaceTable\""
par DummyScenario.car[5].interfaceTable displayAddresses false
par DummyScenario.car[5].mobility typename "\"org.car2x.veins.subprojects.veins_inet.VeinsInetMobility\""
par DummyScenario.car[5].mobility subjectModule "\"^\""
par DummyScenario.car[5].mobility coordinateSystemModule "\"\""
par DummyScenario.car[5].mobility displayStringTextFormat "\"p: %p\\nv: %v\""
par DummyScenario.car[5].mobility updateDisplayString true
par DummyScenario.car[5].mobility constraintAreaMinX "-inf m"
attr unit m
par DummyScenario.car[5].mobility constraintAreaMinY "-inf m"
attr unit m
par DummyScenario.car[5].mobility constraintAreaMinZ "-inf m"
attr unit m
par DummyScenario.car[5].mobility constraintAreaMaxX "inf m"
attr unit m
par DummyScenario.car[5].mobility constraintAreaMaxY "inf m"
attr unit m
par DummyScenario.car[5].mobility constraintAreaMaxZ "inf m"
attr unit m
par DummyScenario.car[5].mobility initFromDisplayString true
par DummyScenario.car[5].udp typename "\"inet.transportlayer.udp.Udp\""
par DummyScenario.car[5].udp interfaceTableModule "\"DummyScenario.car[5].interfaceTable\""
par DummyScenario.car[5].udp icmpModule "\"^.ipv4.icmp\""
par DummyScenario.car[5].udp icmpv6Module "\"^.ipv6.icmpv6\""
par DummyScenario.car[5].udp crcMode "\"declared\""
attr enum disabled,declared,computed
par DummyScenario.car[5].tcp typename "\"inet.transportlayer.tcp.Tcp\""
par DummyScenario.car[5].tcp crcMode "\"declared\""
attr enum declared,computed
par DummyScenario.car[5].tcp advertisedWindow 7504
par DummyScenario.car[5].tcp delayedAcksEnabled false
par DummyScenario.car[5].tcp nagleEnabled true
par DummyScenario.car[5].tcp limitedTransmitEnabled false
par DummyScenario.car[5].tcp increasedIWEnabled false
par DummyScenario.car[5].tcp sackSupport false
par DummyScenario.car[5].tcp windowScalingSupport false
par DummyScenario.car[5].tcp windowScalingFactor -1
par DummyScenario.car[5].tcp timestampSupport false
par DummyScenario.car[5].tcp mss 536
par DummyScenario.car[5].tcp msl 120s
attr unit s
par DummyScenario.car[5].tcp tcpAlgorithmClass "\"TcpReno\""
attr enum TcpVegas,TcpWestwood,TcpNewReno,TcpReno,TcpTahoe,TcpNoCongestionControl
par DummyScenario.car[5].tcp useDataNotification false
par DummyScenario.car[5].tcp dupthresh 3
par DummyScenario.car[5].tcp initialSsthresh 4294967295
par DummyScenario.car[5].tcp stopOperationExtraTime 0s
attr unit s
par DummyScenario.car[5].tcp stopOperationTimeout 2s
attr unit s
par DummyScenario.car[5].tcp ecnWillingness false
par DummyScenario.car[5].tcp dctcpGamma 0.0625
par DummyScenario.car[5].ipv4.transportIn.channel typename "\"ned.IdealChannel\""
par DummyScenario.car[5].ipv4.up.out[0].channel typename "\"ned.IdealChannel\""
par DummyScenario.car[5].ipv4.lp.out[2].channel typename "\"ned.IdealChannel\""
par DummyScenario.car[5].ipv4.ifIn.channel typename "\"ned.IdealChannel\""
par DummyScenario.car[5].ipv4.configurator typename "\"inet.networklayer.configurator.ipv4.HostAutoConfigurator\""
par DummyScenario.car[5].ipv4.configurator interfaceTableModule "\"DummyScenario.car[5].interfaceTable\""
par DummyScenario.car[5].ipv4.configurator interfaces "\"wlan\""
par DummyScenario.car[5].ipv4.configurator addressBase "\"10.0.0.0\""
par DummyScenario.car[5].ipv4.configurator netmask "\"255.0.0.0\""
par DummyScenario.car[5].ipv4.configurator mcastGroups "\"\""
par DummyScenario.car[5].ipv4.routingTable typename "\"inet.networklayer.ipv4.Ipv4RoutingTable\""
par DummyScenario.car[5].ipv4.routingTable interfaceTableModule "\"DummyScenario.car[5].interfaceTable\""
par DummyScenario.car[5].ipv4.routingTable routerId "\"auto\""
par DummyScenario.car[5].ipv4.routingTable netmaskRoutes "\"*\""
par DummyScenario.car[5].ipv4.routingTable forwarding false
par DummyScenario.car[5].ipv4.routingTable multicastForwarding false
par DummyScenario.car[5].ipv4.routingTable useAdminDist false
par DummyScenario.car[5].ipv4.routingTable routingFile "\"\""
par DummyScenario.car[5].ipv4.natTable typename "\"inet.networklayer.ipv4.Ipv4NatTable\""
par DummyScenario.car[5].ipv4.natTable networkProtocolModule "\"^.ip\""
par DummyScenario.car[5].ipv4.natTable config "<config/> at content:1"
par DummyScenario.car[5].ipv4.up typename "\"inet.common.MessageDispatcher\""
par DummyScenario.car[5].ipv4.up displayStringTextFormat "\"processed %p pk (%l)\""
par DummyScenario.car[5].ipv4.igmp typename "\"inet.networklayer.ipv4.Igmpv2\""
par DummyScenario.car[5].ipv4.igmp interfaceTableModule "\"DummyScenario.car[5].interfaceTable\""
par DummyScenario.car[5].ipv4.igmp routingTableModule "\"DummyScenario.car[5].ipv4.routingTable\""
par DummyScenario.car[5].ipv4.igmp crcMode "\"declared\""
attr enum declared,computed
par DummyScenario.car[5].ipv4.igmp enabled true
par DummyScenario.car[5].ipv4.igmp robustnessVariable 2
par DummyScenario.car[5].ipv4.igmp queryInterval 125s
attr unit s
par DummyScenario.car[5].ipv4.igmp queryResponseInterval 10s
attr unit s
par DummyScenario.car[5].ipv4.igmp groupMembershipInterval 260s
attr unit s
par DummyScenario.car[5].ipv4.igmp otherQuerierPresentInterval 255s
attr unit s
par DummyScenario.car[5].ipv4.igmp startupQueryInterval 31.25s
attr unit s
par DummyScenario.car[5].ipv4.igmp startupQueryCount 2
par DummyScenario.car[5].ipv4.igmp lastMemberQueryInterval 1s
attr unit s
par DummyScenario.car[5].ipv4.igmp lastMemberQueryCount 2
par DummyScenario.car[5].ipv4.igmp unsolicitedReportInterval 10s
attr unit s
par DummyScenario.car[5].ipv4.icmp typename "\"inet.networklayer.ipv4.Icmp\""
par DummyScenario.car[5].ipv4.icmp interfaceTableModule "\"DummyScenario.car[5].interfaceTable\""
par DummyScenario.car[5].ipv4.icmp routingTableModule "\"DummyScenario.car[5].ipv4.routingTable\""
par DummyScenario.car[5].ipv4.icmp crcMode "\"declared\""
attr enum declared,computed
par DummyScenario.car[5].ipv4.icmp quoteLength 8B
attr unit B
par DummyScenario.car[5].ipv4.mp typename "\"inet.common.MessageDispatcher\""
par DummyScenario.car[5].ipv4.mp displayStringTextFormat "\"processed %p pk (%l)\""
par DummyScenario.car[5].ipv4.ip typename "\"inet.networklayer.ipv4.Ipv4\""
par DummyScenario.car[5].ipv4.ip interfaceTableModule "\"DummyScenario.car[5].interfaceTable\""
par DummyScenario.car[5].ipv4.ip routingTableModule "\"DummyScenario.car[5].ipv4.routingTable\""
par DummyScenario.car[5].ipv4.ip arpModule "\"DummyScenario.car[5].ipv4.arp\""
par DummyScenario.car[5].ipv4.ip icmpModule "\"DummyScenario.car[5].ipv4.icmp\""
par DummyScenario.car[5].ipv4.ip crcMode "\"declared\""
attr enum declared,computed
par DummyScenario.car[5].ipv4.ip timeToLive 32
par DummyScenario.car[5].ipv4.ip multicastTimeToLive 32
par DummyScenario.car[5].ipv4.ip fragmentTimeout 60s
attr unit s
par DummyScenario.car[5].ipv4.ip limitedBroadcast false
par DummyScenario.car[5].ipv4.ip directBroadcastInterfaces "\"\""
par DummyScenario.car[5].ipv4.arp typename "\"inet.networklayer.arp.ipv4.Arp\""
par DummyScenario.car[5].ipv4.arp interfaceTableModule "\"DummyScenario.car[5].interfaceTable\""
par DummyScenario.car[5].ipv4.arp routingTableModule "\"DummyScenario.car[5].ipv4.routingTable\""
par DummyScenario.car[5].ipv4.arp retryTimeout 1s
attr unit s
par DummyScenario.car[5].ipv4.arp retryCount 3
par DummyScenario.car[5].ipv4.arp cacheTimeout 120s
attr unit s
par DummyScenario.car[5].ipv4.arp proxyArpInterfaces "\"*\""
par DummyScenario.car[5].ipv4.lp typename "\"inet.common.MessageDispatcher\""
par DummyScenario.car[5].ipv4.lp displayStringTextFormat "\"processed %p pk (%l)\""
par DummyScenario.car[5].ipv4 typename "\"inet.networklayer.ipv4.Ipv4NetworkLayer\""
par DummyScenario.car[5].ipv4 forwarding false
par DummyScenario.car[5].ipv4 multicastForwarding false
par DummyScenario.car[5].ipv4 interfaceTableModule "\"DummyScenario.car[5].interfaceTable\""
par DummyScenario.car[5].ipv4 displayStringTextFormat "\"%i\""
par DummyScenario.car[5].lo[0].upperLayerIn.channel typename "\"ned.IdealChannel\""
par DummyScenario.car[5].lo[0].lo.upperLayerOut.channel typename "\"ned.IdealChannel\""
par DummyScenario.car[5].lo[0].lo typename "\"inet.linklayer.loopback.Loopback\""
par DummyScenario.car[5].lo[0].lo interfaceTableModule "\"DummyScenario.car[5].interfaceTable\""
par DummyScenario.car[5].lo[0].lo mtu 4470B
attr unit B
par DummyScenario.car[5].lo[0] typename "\"inet.linklayer.loopback.LoopbackInterface\""
par DummyScenario.car[5].lo[0] displayStringTextFormat "\"%a (%i)\\n%m\""
par DummyScenario.car[5].lo[0] recordPcap false
par DummyScenario.car[5].lo[0] numPcapRecorders 0
par DummyScenario.car[5].lo[0] interfaceTableModule "\"DummyScenario.car[5].interfaceTable\""
par DummyScenario.car[5].cellularNic.ip2nic.upperLayerOut.channel typename "\"ned.DelayChannel\""
par DummyScenario.car[5].cellularNic.ip2nic.upperLayerOut.channel disabled false
par DummyScenario.car[5].cellularNic.ip2nic.upperLayerOut.channel delay 0s
attr unit s
par DummyScenario.car[5].cellularNic.upperLayerIn.channel typename "\"ned.DelayChannel\""
par DummyScenario.car[5].cellularNic.upperLayerIn.channel disabled false
par DummyScenario.car[5].cellularNic.upperLayerIn.channel delay 0s
attr unit s
par DummyScenario.car[5].cellularNic.ip2nic typename "\"simu5g.stack.ip2nic.IP2Nic\""
par DummyScenario.car[5].cellularNic.ip2nic nodeType "\"UE\""
par DummyScenario.car[5].cellularNic.ip2nic interfaceTableModule "\"DummyScenario.car[5].interfaceTable\""
par DummyScenario.car[5].cellularNic.ip2nic routingTableModule "\"DummyScenario.car[5].ipv4.routingTable\""
par DummyScenario.car[5].cellularNic.pdcpRrc typename "\"simu5g.stack.pdcp_rrc.NRPdcpRrcUe\""
par DummyScenario.car[5].cellularNic.pdcpRrc headerCompressedSize -1B
attr unit B
par DummyScenario.car[5].cellularNic.pdcpRrc conversationalRlc 1
attr enum TM,UM,AM,UNKNOWN_RLC_TYPE
par DummyScenario.car[5].cellularNic.pdcpRrc streamingRlc 1
attr enum TM,UM,AM,UNKNOWN_RLC_TYPE
par DummyScenario.car[5].cellularNic.pdcpRrc interactiveRlc 1
attr enum TM,UM,AM,UNKNOWN_RLC_TYPE
par DummyScenario.car[5].cellularNic.pdcpRrc backgroundRlc 1
attr enum TM,UM,AM,UNKNOWN_RLC_TYPE
par DummyScenario.car[5].cellularNic.rlc.tm typename "\"simu5g.stack.rlc.LteRlcTm\""
par DummyScenario.car[5].cellularNic.rlc.tm queueSize 2097152B
attr unit B
par DummyScenario.car[5].cellularNic.rlc.um typename "\"simu5g.stack.rlc.LteRlcUmD2D\""
par DummyScenario.car[5].cellularNic.rlc.um queueSize 2097152B
attr unit B
par DummyScenario.car[5].cellularNic.rlc.um mapAllLcidsToSingleBearer false
par DummyScenario.car[5].cellularNic.rlc.am typename "\"simu5g.stack.rlc.LteRlcAm\""
par DummyScenario.car[5].cellularNic.rlc.mux typename "\"simu5g.stack.rlc.LteRlcMux\""
par DummyScenario.car[5].cellularNic.rlc typename "\"simu5g.stack.rlc.LteRlc\""
par DummyScenario.car[5].cellularNic.rlc LteRlcUmType "\"LteRlcUm\""
par DummyScenario.car[5].cellularNic.rlc d2dCapable true
par DummyScenario.car[5].cellularNic.rlc umType "\"LteRlcUmD2D\""
par DummyScenario.car[5].cellularNic.mac typename "\"simu5g.stack.mac.LteMacUeD2D\""
par DummyScenario.car[5].cellularNic.mac interfaceTableModule "\"DummyScenario.car[5].interfaceTable\""
par DummyScenario.car[5].cellularNic.mac queueSize 2097152B
attr unit B
par DummyScenario.car[5].cellularNic.mac muMimo true
par DummyScenario.car[5].cellularNic.mac harqProcesses 8
par DummyScenario.car[5].cellularNic.mac maxHarqRtx 3
par DummyScenario.car[5].cellularNic.mac harqFbEvaluationTimer 4
par DummyScenario.car[5].cellularNic.mac statDisplay false
par DummyScenario.car[5].cellularNic.mac usePreconfiguredTxParams false
par DummyScenario.car[5].cellularNic.mac d2dCqi 7
par DummyScenario.car[5].cellularNic.phy typename "\"simu5g.stack.phy.NRPhyUe\""
par DummyScenario.car[5].cellularNic.phy ueTxPower 26
par DummyScenario.car[5].cellularNic.phy eNodeBTxPower 46
par DummyScenario.car[5].cellularNic.phy microTxPower 30
par DummyScenario.car[5].cellularNic.phy txDirection "\"OMNI\""
par DummyScenario.car[5].cellularNic.phy txAngle 0
par DummyScenario.car[5].cellularNic.phy dynamicCellAssociation false
par DummyScenario.car[5].cellularNic.phy enableHandover false
par DummyScenario.car[5].cellularNic.phy handoverLatency 0.05s
attr unit s
par DummyScenario.car[5].cellularNic.phy enableMulticastD2DRangeCheck false
par DummyScenario.car[5].cellularNic.phy multicastD2DRange 1000m
attr unit m
par DummyScenario.car[5].cellularNic.phy minRssiDefault true
par DummyScenario.car[5].cellularNic.phy minRssi -99dB
attr unit dB
par DummyScenario.car[5].cellularNic.phy d2dTxPower 26
par DummyScenario.car[5].cellularNic.phy d2dMulticastCaptureEffect true
par DummyScenario.car[5].cellularNic.phy d2dMulticastCaptureEffectFactor "\"RSRP\""
par DummyScenario.car[5].cellularNic.channelModel[0] typename "\"simu5g.stack.phy.ChannelModel.LteRealisticChannelModel\""
par DummyScenario.car[5].cellularNic.channelModel[0] componentCarrierIndex 0
par DummyScenario.car[5].cellularNic.channelModel[0] shadowing true
par DummyScenario.car[5].cellularNic.channelModel[0] scenario "\"URBAN_MACROCELL\""
par DummyScenario.car[5].cellularNic.channelModel[0] nodeb_height 25
par DummyScenario.car[5].cellularNic.channelModel[0] building_height 20
par DummyScenario.car[5].cellularNic.channelModel[0] inside_building false
par DummyScenario.car[5].cellularNic.channelModel[0] street_wide 20
par DummyScenario.car[5].cellularNic.channelModel[0] ue_height 1.5
par DummyScenario.car[5].cellularNic.channelModel[0] tolerateMaxDistViolation false
par DummyScenario.car[5].cellularNic.channelModel[0] useTorus false
par DummyScenario.car[5].cellularNic.channelModel[0] correlation_distance 50
par DummyScenario.car[5].cellularNic.channelModel[0] targetBler 0.01
par DummyScenario.car[5].cellularNic.channelModel[0] harqReduction 0.2
par DummyScenario.car[5].cellularNic.channelModel[0] lambdaMinTh 0.02
par DummyScenario.car[5].cellularNic.channelModel[0] lambdaMaxTh 0.2
par DummyScenario.car[5].cellularNic.channelModel[0] lambdaRatioTh 20
par DummyScenario.car[5].cellularNic.channelModel[0] antennaGainUe 0
par DummyScenario.car[5].cellularNic.channelModel[0] antennGainEnB 18
par DummyScenario.car[5].cellularNic.channelModel[0] antennGainMicro 5
par DummyScenario.car[5].cellularNic.channelModel[0] thermalNoise -104.5
par DummyScenario.car[5].cellularNic.channelModel[0] ue_noise_figure 7
par DummyScenario.car[5].cellularNic.channelModel[0] bs_noise_figure 5
par DummyScenario.car[5].cellularNic.channelModel[0] cable_loss 2
par DummyScenario.car[5].cellularNic.channelModel[0] dynamic_los false
par DummyScenario.car[5].cellularNic.channelModel[0] fixed_los false
par DummyScenario.car[5].cellularNic.channelModel[0] fading true
par DummyScenario.car[5].cellularNic.channelModel[0] fading_type "\"JAKES\""
par DummyScenario.car[5].cellularNic.channelModel[0] fading_paths 6
par DummyScenario.car[5].cellularNic.channelModel[0] delay_rms 3.63e-07
par DummyScenario.car[5].cellularNic.channelModel[0] bgCell_interference true
par DummyScenario.car[5].cellularNic.channelModel[0] extCell_interference true
par DummyScenario.car[5].cellularNic.channelModel[0] downlink_interference false
par DummyScenario.car[5].cellularNic.channelModel[0] uplink_interference false
par DummyScenario.car[5].cellularNic.channelModel[0] d2d_interference true
par DummyScenario.car[5].cellularNic.channelModel[0] enable_extCell_los true
par DummyScenario.car[5].cellularNic.channelModel[0] useRsrqFromLog false
par DummyScenario.car[5].cellularNic.channelModel[0] rsrqShift 22
par DummyScenario.car[5].cellularNic.channelModel[0] rsrqScale 1
par DummyScenario.car[5].cellularNic.channelModel[0] collectSinrStatistics true
par DummyScenario.car[5].cellularNic.dlFbGen typename "\"simu5g.stack.phy.feedback.LteDlFeedbackGenerator\""
par DummyScenario.car[5].cellularNic.dlFbGen feedbackType "\"ALLBANDS\""
par DummyScenario.car[5].cellularNic.dlFbGen rbAllocationType "\"localized\""
par DummyScenario.car[5].cellularNic.dlFbGen fbPeriod 6
par DummyScenario.car[5].cellularNic.dlFbGen fbDelay 1
par DummyScenario.car[5].cellularNic.dlFbGen usePeriodic true
par DummyScenario.car[5].cellularNic.dlFbGen initialTxMode "\"SINGLE_ANTENNA_PORT0\""
par DummyScenario.car[5].cellularNic.dlFbGen feedbackGeneratorType "\"IDEAL\""
par DummyScenario.car[5].cellularNic.nrRlc.tm typename "\"simu5g.stack.rlc.LteRlcTm\""
par DummyScenario.car[5].cellularNic.nrRlc.tm queueSize 2097152B
attr unit B
par DummyScenario.car[5].cellularNic.nrRlc.um typename "\"simu5g.stack.rlc.LteRlcUmD2D\""
par DummyScenario.car[5].cellularNic.nrRlc.um queueSize 2097152B
attr unit B
par DummyScenario.car[5].cellularNic.nrRlc.um mapAllLcidsToSingleBearer false
par DummyScenario.car[5].cellularNic.nrRlc.am typename "\"simu5g.stack.rlc.LteRlcAm\""
par DummyScenario.car[5].cellularNic.nrRlc.mux typename "\"simu5g.stack.rlc.LteRlcMux\""
par DummyScenario.car[5].cellularNic.nrRlc typename "\"simu5g.stack.rlc.LteRlc\""
par DummyScenario.car[5].cellularNic.nrRlc LteRlcUmType "\"LteRlcUm\""
par DummyScenario.car[5].cellularNic.nrRlc d2dCapable true
par DummyScenario.car[5].cellularNic.nrRlc umType "\"LteRlcUmD2D\""
par DummyScenario.car[5].cellularNic.nrMac typename "\"simu5g.stack.mac.NRMacUe\""
par DummyScenario.car[5].cellularNic.nrMac interfaceTableModule "\"DummyScenario.car[5].interfaceTable\""
par DummyScenario.car[5].cellularNic.nrMac queueSize 2097152B
attr unit B
par DummyScenario.car[5].cellularNic.nrMac muMimo true
par DummyScenario.car[5].cellularNic.nrMac harqProcesses 8
par DummyScenario.car[5].cellularNic.nrMac maxHarqRtx 3
par DummyScenario.car[5].cellularNic.nrMac harqFbEvaluationTimer 4
par DummyScenario.car[5].cellularNic.nrMac statDisplay false
par DummyScenario.car[5].cellularNic.nrMac usePreconfiguredTxParams false
par DummyScenario.car[5].cellularNic.nrMac d2dCqi 7
par DummyScenario.car[5].cellularNic.nrPhy typename "\"simu5g.stack.phy.NRPhyUe\""
par DummyScenario.car[5].cellularNic.nrPhy ueTxPower 26
par DummyScenario.car[5].cellularNic.nrPhy eNodeBTxPower 46
par DummyScenario.car[5].cellularNic.nrPhy microTxPower 30
par DummyScenario.car[5].cellularNic.nrPhy txDirection "\"OMNI\""
par DummyScenario.car[5].cellularNic.nrPhy txAngle 0
par DummyScenario.car[5].cellularNic.nrPhy dynamicCellAssociation true
par DummyScenario.car[5].cellularNic.nrPhy enableHandover true
par DummyScenario.car[5].cellularNic.nrPhy handoverLatency 0.05s
attr unit s
par DummyScenario.car[5].cellularNic.nrPhy enableMulticastD2DRangeCheck false
par DummyScenario.car[5].cellularNic.nrPhy multicastD2DRange 1000m
attr unit m
par DummyScenario.car[5].cellularNic.nrPhy minRssiDefault true
par DummyScenario.car[5].cellularNic.nrPhy minRssi -99dB
attr unit dB
par DummyScenario.car[5].cellularNic.nrPhy d2dTxPower 26
par DummyScenario.car[5].cellularNic.nrPhy d2dMulticastCaptureEffect true
par DummyScenario.car[5].cellularNic.nrPhy d2dMulticastCaptureEffectFactor "\"RSRP\""
par DummyScenario.car[5].cellularNic.nrChannelModel[0] typename "\"simu5g.stack.phy.ChannelModel.NRChannelModel\""
par DummyScenario.car[5].cellularNic.nrChannelModel[0] componentCarrierIndex 0
par DummyScenario.car[5].cellularNic.nrChannelModel[0] shadowing true
par DummyScenario.car[5].cellularNic.nrChannelModel[0] scenario "\"URBAN_MACROCELL\""
par DummyScenario.car[5].cellularNic.nrChannelModel[0] nodeb_height 25
par DummyScenario.car[5].cellularNic.nrChannelModel[0] building_height 20
par DummyScenario.car[5].cellularNic.nrChannelModel[0] inside_building false
par DummyScenario.car[5].cellularNic.nrChannelModel[0] street_wide 20
par DummyScenario.car[5].cellularNic.nrChannelModel[0] ue_height 1.5
par DummyScenario.car[5].cellularNic.nrChannelModel[0] tolerateMaxDistViolation false
par DummyScenario.car[5].cellularNic.nrChannelModel[0] useTorus false
par DummyScenario.car[5].cellularNic.nrChannelModel[0] correlation_distance 50
par DummyScenario.car[5].cellularNic.nrChannelModel[0] targetBler 0.01
par DummyScenario.car[5].cellularNic.nrChannelModel[0] harqReduction 0.2
par DummyScenario.car[5].cellularNic.nrChannelModel[0] lambdaMinTh 0.02
par DummyScenario.car[5].cellularNic.nrChannelModel[0] lambdaMaxTh 0.2
par DummyScenario.car[5].cellularNic.nrChannelModel[0] lambdaRatioTh 20
par DummyScenario.car[5].cellularNic.nrChannelModel[0] antennaGainUe 0
par DummyScenario.car[5].cellularNic.nrChannelModel[0] antennGainEnB 18
par DummyScenario.car[5].cellularNic.nrChannelModel[0] antennGainMicro 5
par DummyScenario.car[5].cellularNic.nrChannelModel[0] thermalNoise -104.5
par DummyScenario.car[5].cellularNic.nrChannelModel[0] ue_noise_figure 7
par DummyScenario.car[5].cellularNic.nrChannelModel[0] bs_noise_figure 5
par DummyScenario.car[5].cellularNic.nrChannelModel[0] cable_loss 2
par DummyScenario.car[5].cellularNic.nrChannelModel[0] dynamic_los false
par DummyScenario.car[5].cellularNic.nrChannelModel[0] fixed_los false
par DummyScenario.car[5].cellularNic.nrChannelModel[0] fading true
par DummyScenario.car[5].cellularNic.nrChannelModel[0] fading_type "\"JAKES\""
par DummyScenario.car[5].cellularNic.nrChannelModel[0] fading_paths 6
par DummyScenario.car[5].cellularNic.nrChannelModel[0] delay_rms 3.63e-07
par DummyScenario.car[5].cellularNic.nrChannelModel[0] bgCell_interference true
par DummyScenario.car[5].cellularNic.nrChannelModel[0] extCell_interference true
par DummyScenario.car[5].cellularNic.nrChannelModel[0] downlink_interference false
par DummyScenario.car[5].cellularNic.nrChannelModel[0] uplink_interference false
par DummyScenario.car[5].cellularNic.nrChannelModel[0] d2d_interference true
par DummyScenario.car[5].cellularNic.nrChannelModel[0] enable_extCell_los true
par DummyScenario.car[5].cellularNic.nrChannelModel[0] useRsrqFromLog false
par DummyScenario.car[5].cellularNic.nrChannelModel[0] rsrqShift 22
par DummyScenario.car[5].cellularNic.nrChannelModel[0] rsrqScale 1
par DummyScenario.car[5].cellularNic.nrChannelModel[0] collectSinrStatistics true
par DummyScenario.car[5].cellularNic.nrDlFbGen typename "\"simu5g.stack.phy.feedback.LteDlFeedbackGenerator\""
par DummyScenario.car[5].cellularNic.nrDlFbGen feedbackType "\"ALLBANDS\""
par DummyScenario.car[5].cellularNic.nrDlFbGen rbAllocationType "\"localized\""
par DummyScenario.car[5].cellularNic.nrDlFbGen fbPeriod 6
par DummyScenario.car[5].cellularNic.nrDlFbGen fbDelay 1
par DummyScenario.car[5].cellularNic.nrDlFbGen usePeriodic true
par DummyScenario.car[5].cellularNic.nrDlFbGen initialTxMode "\"SINGLE_ANTENNA_PORT0\""
par DummyScenario.car[5].cellularNic.nrDlFbGen feedbackGeneratorType "\"IDEAL\""
par DummyScenario.car[5].cellularNic typename "\"simu5g.stack.NRNicUe\""
par DummyScenario.car[5].cellularNic displayStringTextFormat "\"%a (%i)\\n%m\""
par DummyScenario.car[5].cellularNic recordPcap false
par DummyScenario.car[5].cellularNic numPcapRecorders 0
par DummyScenario.car[5].cellularNic interfaceTableModule "\"DummyScenario.car[5].interfaceTable\""
par DummyScenario.car[5].cellularNic routingTableModule "\"DummyScenario.car[5].ipv4.routingTable\""
par DummyScenario.car[5].cellularNic LtePdcpRrcType "\"NRPdcpRrcUe\""
par DummyScenario.car[5].cellularNic LteMacType "\"LteMacUeD2D\""
par DummyScenario.car[5].cellularNic PacketFlowManagerType "\"PacketFlowManagerUe\""
par DummyScenario.car[5].cellularNic hasRNISupport false
par DummyScenario.car[5].cellularNic LtePhyType "\"NRPhyUe\""
par DummyScenario.car[5].cellularNic nodeType "\"UE\""
par DummyScenario.car[5].cellularNic processingDelayIn 0s
attr unit s
par DummyScenario.car[5].cellularNic processingDelayOut 0s
attr unit s
par DummyScenario.car[5].cellularNic LteChannelModelType "\"LteRealisticChannelModel\""
par DummyScenario.car[5].cellularNic d2dCapable true
par DummyScenario.car[5].cellularNic dualConnectivityEnabled false
par DummyScenario.car[5].cellularNic numCarriers 1
par DummyScenario.car[5].cellularNic address "\"0A-AA-00-00-00-09\""
par DummyScenario.car[5].cellularNic d2dInitialMode false
par DummyScenario.car[5].cellularNic NRMacType "\"NRMacUe\""
par DummyScenario.car[5].cellularNic NRPhyType "\"NRPhyUe\""
par DummyScenario.car[5].cellularNic NRChannelModelType "\"NRChannelModel\""
par DummyScenario.car[5].cellularNic NRPacketFlowManagerType "\"NRPacketFlowManagerUe\""
par DummyScenario.car[5].cellularNic numNRCarriers 1
par DummyScenario.car[5].at typename "\"inet.common.MessageDispatcher\""
par DummyScenario.car[5].at displayStringTextFormat "\"processed %p pk (%l)\""
par DummyScenario.car[5].tn typename "\"inet.common.MessageDispatcher\""
par DummyScenario.car[5].tn displayStringTextFormat "\"processed %p pk (%l)\""
par DummyScenario.car[5].nl typename "\"inet.common.MessageDispatcher\""
par DummyScenario.car[5].nl displayStringTextFormat "\"processed %p pk (%l)\""
par DummyScenario.car[5].configurator typename "\"inet.networklayer.configurator.ipv4.HostAutoConfigurator\""
par DummyScenario.car[5].configurator interfaceTableModule "\"DummyScenario.car[5].interfaceTable\""
par DummyScenario.car[5].configurator interfaces "\"wlan\""
par DummyScenario.car[5].configurator addressBase "\"10.0.0.0\""
par DummyScenario.car[5].configurator netmask "\"255.0.0.0\""
[...]
par DummyScenario.car[29].ipv4.ip multicastTimeToLive 32
par DummyScenario.car[29].ipv4.ip fragmentTimeout 60s
attr unit s
par DummyScenario.car[29].ipv4.ip limitedBroadcast false
par DummyScenario.car[29].ipv4.ip directBroadcastInterfaces "\"\""
par DummyScenario.car[29].ipv4.arp typename "\"inet.networklayer.arp.ipv4.Arp\""
par DummyScenario.car[29].ipv4.arp interfaceTableModule "\"DummyScenario.car[29].interfaceTable\""
par DummyScenario.car[29].ipv4.arp routingTableModule "\"DummyScenario.car[29].ipv4.routingTable\""
par DummyScenario.car[29].ipv4.arp retryTimeout 1s
attr unit s
par DummyScenario.car[29].ipv4.arp retryCount 3
par DummyScenario.car[29].ipv4.arp cacheTimeout 120s
attr unit s
par DummyScenario.car[29].ipv4.arp proxyArpInterfaces "\"*\""
par DummyScenario.car[29].ipv4.lp typename "\"inet.common.MessageDispatcher\""
par DummyScenario.car[29].ipv4.lp displayStringTextFormat "\"processed %p pk (%l)\""
par DummyScenario.car[29].ipv4 typename "\"inet.networklayer.ipv4.Ipv4NetworkLayer\""
par DummyScenario.car[29].ipv4 forwarding false
par DummyScenario.car[29].ipv4 multicastForwarding false
par DummyScenario.car[29].ipv4 interfaceTableModule "\"DummyScenario.car[29].interfaceTable\""
par DummyScenario.car[29].ipv4 displayStringTextFormat "\"%i\""
par DummyScenario.car[29].lo[0].upperLayerIn.channel typename "\"ned.IdealChannel\""
par DummyScenario.car[29].lo[0].lo.upperLayerOut.channel typename "\"ned.IdealChannel\""
par DummyScenario.car[29].lo[0].lo typename "\"inet.linklayer.loopback.Loopback\""
par DummyScenario.car[29].lo[0].lo interfaceTableModule "\"DummyScenario.car[29].interfaceTable\""
par DummyScenario.car[29].lo[0].lo mtu 4470B
attr unit B
par DummyScenario.car[29].lo[0] typename "\"inet.linklayer.loopback.LoopbackInterface\""
par DummyScenario.car[29].lo[0] displayStringTextFormat "\"%a (%i)\\n%m\""
par DummyScenario.car[29].lo[0] recordPcap false
par DummyScenario.car[29].lo[0] numPcapRecorders 0
par DummyScenario.car[29].lo[0] interfaceTableModule "\"DummyScenario.car[29].interfaceTable\""
par DummyScenario.car[29].cellularNic.ip2nic.upperLayerOut.channel typename "\"ned.DelayChannel\""
par DummyScenario.car[29].cellularNic.ip2nic.upperLayerOut.channel disabled false
par DummyScenario.car[29].cellularNic.ip2nic.upperLayerOut.channel delay 0s
attr unit s
par DummyScenario.car[29].cellularNic.upperLayerIn.channel typename "\"ned.DelayChannel\""
par DummyScenario.car[29].cellularNic.upperLayerIn.channel disabled false
par DummyScenario.car[29].cellularNic.upperLayerIn.channel delay 0s
attr unit s
par DummyScenario.car[29].cellularNic.ip2nic typename "\"simu5g.stack.ip2nic.IP2Nic\""
par DummyScenario.car[29].cellularNic.ip2nic nodeType "\"UE\""
par DummyScenario.car[29].cellularNic.ip2nic interfaceTableModule "\"DummyScenario.car[29].interfaceTable\""
par DummyScenario.car[29].cellularNic.ip2nic routingTableModule "\"DummyScenario.car[29].ipv4.routingTable\""
par DummyScenario.car[29].cellularNic.pdcpRrc typename "\"simu5g.stack.pdcp_rrc.NRPdcpRrcUe\""
par DummyScenario.car[29].cellularNic.pdcpRrc headerCompressedSize -1B
attr unit B
par DummyScenario.car[29].cellularNic.pdcpRrc conversationalRlc 1
attr enum TM,UM,AM,UNKNOWN_RLC_TYPE
par DummyScenario.car[29].cellularNic.pdcpRrc streamingRlc 1
attr enum TM,UM,AM,UNKNOWN_RLC_TYPE
par DummyScenario.car[29].cellularNic.pdcpRrc interactiveRlc 1
attr enum TM,UM,AM,UNKNOWN_RLC_TYPE
par DummyScenario.car[29].cellularNic.pdcpRrc backgroundRlc 1
attr enum TM,UM,AM,UNKNOWN_RLC_TYPE
par DummyScenario.car[29].cellularNic.rlc.tm typename "\"simu5g.stack.rlc.LteRlcTm\""
par DummyScenario.car[29].cellularNic.rlc.tm queueSize 2097152B
attr unit B
par DummyScenario.car[29].cellularNic.rlc.um typename "\"simu5g.stack.rlc.LteRlcUmD2D\""
par DummyScenario.car[29].cellularNic.rlc.um queueSize 2097152B
attr unit B
par DummyScenario.car[29].cellularNic.rlc.um mapAllLcidsToSingleBearer false
par DummyScenario.car[29].cellularNic.rlc.am typename "\"simu5g.stack.rlc.LteRlcAm\""
par DummyScenario.car[29].cellularNic.rlc.mux typename "\"simu5g.stack.rlc.LteRlcMux\""
par DummyScenario.car[29].cellularNic.rlc typename "\"simu5g.stack.rlc.LteRlc\""
par DummyScenario.car[29].cellularNic.rlc LteRlcUmType "\"LteRlcUm\""
par DummyScenario.car[29].cellularNic.rlc d2dCapable true
par DummyScenario.car[29].cellularNic.rlc umType "\"LteRlcUmD2D\""
par DummyScenario.car[29].cellularNic.mac typename "\"simu5g.stack.mac.LteMacUeD2D\""
par DummyScenario.car[29].cellularNic.mac interfaceTableModule "\"DummyScenario.car[29].interfaceTable\""
par DummyScenario.car[29].cellularNic.mac queueSize 2097152B
attr unit B
par DummyScenario.car[29].cellularNic.mac muMimo true
par DummyScenario.car[29].cellularNic.mac harqProcesses 8
par DummyScenario.car[29].cellularNic.mac maxHarqRtx 3
par DummyScenario.car[29].cellularNic.mac harqFbEvaluationTimer 4
par DummyScenario.car[29].cellularNic.mac statDisplay false
par DummyScenario.car[29].cellularNic.mac usePreconfiguredTxParams false
par DummyScenario.car[29].cellularNic.mac d2dCqi 7
par DummyScenario.car[29].cellularNic.phy typename "\"simu5g.stack.phy.NRPhyUe\""
par DummyScenario.car[29].cellularNic.phy ueTxPower 26
par DummyScenario.car[29].cellularNic.phy eNodeBTxPower 46
par DummyScenario.car[29].cellularNic.phy microTxPower 30
par DummyScenario.car[29].cellularNic.phy txDirection "\"OMNI\""
par DummyScenario.car[29].cellularNic.phy txAngle 0
par DummyScenario.car[29].cellularNic.phy dynamicCellAssociation false
par DummyScenario.car[29].cellularNic.phy enableHandover false
par DummyScenario.car[29].cellularNic.phy handoverLatency 0.05s
attr unit s
par DummyScenario.car[29].cellularNic.phy enableMulticastD2DRangeCheck false
par DummyScenario.car[29].cellularNic.phy multicastD2DRange 1000m
attr unit m
par DummyScenario.car[29].cellularNic.phy minRssiDefault true
par DummyScenario.car[29].cellularNic.phy minRssi -99dB
attr unit dB
par DummyScenario.car[29].cellularNic.phy d2dTxPower 26
par DummyScenario.car[29].cellularNic.phy d2dMulticastCaptureEffect true
par DummyScenario.car[29].cellularNic.phy d2dMulticastCaptureEffectFactor "\"RSRP\""
par DummyScenario.car[29].cellularNic.channelModel[0] typename "\"simu5g.stack.phy.ChannelModel.LteRealisticChannelModel\""
par DummyScenario.car[29].cellularNic.channelModel[0] componentCarrierIndex 0
par DummyScenario.car[29].cellularNic.channelModel[0] shadowing true
par DummyScenario.car[29].cellularNic.channelModel[0] scenario "\"URBAN_MACROCELL\""
par DummyScenario.car[29].cellularNic.channelModel[0] nodeb_height 25
par DummyScenario.car[29].cellularNic.channelModel[0] building_height 20
par DummyScenario.car[29].cellularNic.channelModel[0] inside_building false
par DummyScenario.car[29].cellularNic.channelModel[0] street_wide 20
par DummyScenario.car[29].cellularNic.channelModel[0] ue_height 1.5
par DummyScenario.car[29].cellularNic.channelModel[0] tolerateMaxDistViolation false
par DummyScenario.car[29].cellularNic.channelModel[0] useTorus false
par DummyScenario.car[29].cellularNic.channelModel[0] correlation_distance 50
par DummyScenario.car[29].cellularNic.channelModel[0] targetBler 0.01
par DummyScenario.car[29].cellularNic.channelModel[0] harqReduction 0.2
par DummyScenario.car[29].cellularNic.channelModel[0] lambdaMinTh 0.02
par DummyScenario.car[29].cellularNic.channelModel[0] lambdaMaxTh 0.2
par DummyScenario.car[29].cellularNic.channelModel[0] lambdaRatioTh 20
par DummyScenario.car[29].cellularNic.channelModel[0] antennaGainUe 0
par DummyScenario.car[29].cellularNic.channelModel[0] antennGainEnB 18
par DummyScenario.car[29].cellularNic.channelModel[0] antennGainMicro 5
par DummyScenario.car[29].cellularNic.channelModel[0] thermalNoise -104.5
par DummyScenario.car[29].cellularNic.channelModel[0] ue_noise_figure 7
par DummyScenario.car[29].cellularNic.channelModel[0] bs_noise_figure 5
par DummyScenario.car[29].cellularNic.channelModel[0] cable_loss 2
par DummyScenario.car[29].cellularNic.channelModel[0] dynamic_los false
par DummyScenario.car[29].cellularNic.channelModel[0] fixed_los false
par DummyScenario.car[29].cellularNic.channelModel[0] fading true
par DummyScenario.car[29].cellularNic.channelModel[0] fading_type "\"JAKES\""
par DummyScenario.car[29].cellularNic.channelModel[0] fading_paths 6
par DummyScenario.car[29].cellularNic.channelModel[0] delay_rms 3.63e-07
par DummyScenario.car[29].cellularNic.channelModel[0] bgCell_interference true
par DummyScenario.car[29].cellularNic.channelModel[0] extCell_interference true
par DummyScenario.car[29].cellularNic.channelModel[0] downlink_interference false
par DummyScenario.car[29].cellularNic.channelModel[0] uplink_interference false
par DummyScenario.car[29].cellularNic.channelModel[0] d2d_interference true
par DummyScenario.car[29].cellularNic.channelModel[0] enable_extCell_los true
par DummyScenario.car[29].cellularNic.channelModel[0] useRsrqFromLog false
par DummyScenario.car[29].cellularNic.channelModel[0] rsrqShift 22
par DummyScenario.car[29].cellularNic.channelModel[0] rsrqScale 1
par DummyScenario.car[29].cellularNic.channelModel[0] collectSinrStatistics true
par DummyScenario.car[29].cellularNic.dlFbGen typename "\"simu5g.stack.phy.feedback.LteDlFeedbackGenerator\""
par DummyScenario.car[29].cellularNic.dlFbGen feedbackType "\"ALLBANDS\""
par DummyScenario.car[29].cellularNic.dlFbGen rbAllocationType "\"localized\""
par DummyScenario.car[29].cellularNic.dlFbGen fbPeriod 6
par DummyScenario.car[29].cellularNic.dlFbGen fbDelay 1
par DummyScenario.car[29].cellularNic.dlFbGen usePeriodic true
par DummyScenario.car[29].cellularNic.dlFbGen initialTxMode "\"SINGLE_ANTENNA_PORT0\""
par DummyScenario.car[29].cellularNic.dlFbGen feedbackGeneratorType "\"IDEAL\""
par DummyScenario.car[29].cellularNic.nrRlc.tm typename "\"simu5g.stack.rlc.LteRlcTm\""
par DummyScenario.car[29].cellularNic.nrRlc.tm queueSize 2097152B
attr unit B
par DummyScenario.car[29].cellularNic.nrRlc.um typename "\"simu5g.stack.rlc.LteRlcUmD2D\""
par DummyScenario.car[29].cellularNic.nrRlc.um queueSize 2097152B
attr unit B
par DummyScenario.car[29].cellularNic.nrRlc.um mapAllLcidsToSingleBearer false
par DummyScenario.car[29].cellularNic.nrRlc.am typename "\"simu5g.stack.rlc.LteRlcAm\""
par DummyScenario.car[29].cellularNic.nrRlc.mux typename "\"simu5g.stack.rlc.LteRlcMux\""
par DummyScenario.car[29].cellularNic.nrRlc typename "\"simu5g.stack.rlc.LteRlc\""
par DummyScenario.car[29].cellularNic.nrRlc LteRlcUmType "\"LteRlcUm\""
par DummyScenario.car[29].cellularNic.nrRlc d2dCapable true
par DummyScenario.car[29].cellularNic.nrRlc umType "\"LteRlcUmD2D\""
par DummyScenario.car[29].cellularNic.nrMac typename "\"simu5g.stack.mac.NRMacUe\""
par DummyScenario.car[29].cellularNic.nrMac interfaceTableModule "\"DummyScenario.car[29].interfaceTable\""
par DummyScenario.car[29].cellularNic.nrMac queueSize 2097152B
attr unit B
par DummyScenario.car[29].cellularNic.nrMac muMimo true
par DummyScenario.car[29].cellularNic.nrMac harqProcesses 8
par DummyScenario.car[29].cellularNic.nrMac maxHarqRtx 3
par DummyScenario.car[29].cellularNic.nrMac harqFbEvaluationTimer 4
par DummyScenario.car[29].cellularNic.nrMac statDisplay false
par DummyScenario.car[29].cellularNic.nrMac usePreconfiguredTxParams false
par DummyScenario.car[29].cellularNic.nrMac d2dCqi 7
par DummyScenario.car[29].cellularNic.nrPhy typename "\"simu5g.stack.phy.NRPhyUe\""
par DummyScenario.car[29].cellularNic.nrPhy ueTxPower 26
par DummyScenario.car[29].cellularNic.nrPhy eNodeBTxPower 46
par DummyScenario.car[29].cellularNic.nrPhy microTxPower 30
par DummyScenario.car[29].cellularNic.nrPhy txDirection "\"OMNI\""
par DummyScenario.car[29].cellularNic.nrPhy txAngle 0
par DummyScenario.car[29].cellularNic.nrPhy dynamicCellAssociation true
par DummyScenario.car[29].cellularNic.nrPhy enableHandover true
par DummyScenario.car[29].cellularNic.nrPhy handoverLatency 0.05s
attr unit s
par DummyScenario.car[29].cellularNic.nrPhy enableMulticastD2DRangeCheck false
par DummyScenario.car[29].cellularNic.nrPhy multicastD2DRange 1000m
attr unit m
par DummyScenario.car[29].cellularNic.nrPhy minRssiDefault true
par DummyScenario.car[29].cellularNic.nrPhy minRssi -99dB
attr unit dB
par DummyScenario.car[29].cellularNic.nrPhy d2dTxPower 26
par DummyScenario.car[29].cellularNic.nrPhy d2dMulticastCaptureEffect true
par DummyScenario.car[29].cellularNic.nrPhy d2dMulticastCaptureEffectFactor "\"RSRP\""
par DummyScenario.car[29].cellularNic.nrChannelModel[0] typename "\"simu5g.stack.phy.ChannelModel.NRChannelModel\""
par DummyScenario.car[29].cellularNic.nrChannelModel[0] componentCarrierIndex 0
par DummyScenario.car[29].cellularNic.nrChannelModel[0] shadowing true
par DummyScenario.car[29].cellularNic.nrChannelModel[0] scenario "\"URBAN_MACROCELL\""
par DummyScenario.car[29].cellularNic.nrChannelModel[0] nodeb_height 25
par DummyScenario.car[29].cellularNic.nrChannelModel[0] building_height 20
par DummyScenario.car[29].cellularNic.nrChannelModel[0] inside_building false
par DummyScenario.car[29].cellularNic.nrChannelModel[0] street_wide 20
par DummyScenario.car[29].cellularNic.nrChannelModel[0] ue_height 1.5
par DummyScenario.car[29].cellularNic.nrChannelModel[0] tolerateMaxDistViolation false
par DummyScenario.car[29].cellularNic.nrChannelModel[0] useTorus false
par DummyScenario.car[29].cellularNic.nrChannelModel[0] correlation_distance 50
par DummyScenario.car[29].cellularNic.nrChannelModel[0] targetBler 0.01
par DummyScenario.car[29].cellularNic.nrChannelModel[0] harqReduction 0.2
par DummyScenario.car[29].cellularNic.nrChannelModel[0] lambdaMinTh 0.02
par DummyScenario.car[29].cellularNic.nrChannelModel[0] lambdaMaxTh 0.2
par DummyScenario.car[29].cellularNic.nrChannelModel[0] lambdaRatioTh 20
par DummyScenario.car[29].cellularNic.nrChannelModel[0] antennaGainUe 0
par DummyScenario.car[29].cellularNic.nrChannelModel[0] antennGainEnB 18
par DummyScenario.car[29].cellularNic.nrChannelModel[0] antennGainMicro 5
par DummyScenario.car[29].cellularNic.nrChannelModel[0] thermalNoise -104.5
par DummyScenario.car[29].cellularNic.nrChannelModel[0] ue_noise_figure 7
par DummyScenario.car[29].cellularNic.nrChannelModel[0] bs_noise_figure 5
par DummyScenario.car[29].cellularNic.nrChannelModel[0] cable_loss 2
par DummyScenario.car[29].cellularNic.nrChannelModel[0] dynamic_los false
par DummyScenario.car[29].cellularNic.nrChannelModel[0] fixed_los false
par DummyScenario.car[29].cellularNic.nrChannelModel[0] fading true
par DummyScenario.car[29].cellularNic.nrChannelModel[0] fading_type "\"JAKES\""
par DummyScenario.car[29].cellularNic.nrChannelModel[0] fading_paths 6
par DummyScenario.car[29].cellularNic.nrChannelModel[0] delay_rms 3.63e-07
par DummyScenario.car[29].cellularNic.nrChannelModel[0] bgCell_interference true
par DummyScenario.car[29].cellularNic.nrChannelModel[0] extCell_interference true
par DummyScenario.car[29].cellularNic.nrChannelModel[0] downlink_interference false
par DummyScenario.car[29].cellularNic.nrChannelModel[0] uplink_interference false
par DummyScenario.car[29].cellularNic.nrChannelModel[0] d2d_interference true
par DummyScenario.car[29].cellularNic.nrChannelModel[0] enable_extCell_los true
par DummyScenario.car[29].cellularNic.nrChannelModel[0] useRsrqFromLog false
par DummyScenario.car[29].cellularNic.nrChannelModel[0] rsrqShift 22
par DummyScenario.car[29].cellularNic.nrChannelModel[0] rsrqScale 1
par DummyScenario.car[29].cellularNic.nrChannelModel[0] collectSinrStatistics true
par DummyScenario.car[29].cellularNic.nrDlFbGen typename "\"simu5g.stack.phy.feedback.LteDlFeedbackGenerator\""
par DummyScenario.car[29].cellularNic.nrDlFbGen feedbackType "\"ALLBANDS\""
par DummyScenario.car[29].cellularNic.nrDlFbGen rbAllocationType "\"localized\""
par DummyScenario.car[29].cellularNic.nrDlFbGen fbPeriod 6
par DummyScenario.car[29].cellularNic.nrDlFbGen fbDelay 1
par DummyScenario.car[29].cellularNic.nrDlFbGen usePeriodic true
par DummyScenario.car[29].cellularNic.nrDlFbGen initialTxMode "\"SINGLE_ANTENNA_PORT0\""
par DummyScenario.car[29].cellularNic.nrDlFbGen feedbackGeneratorType "\"IDEAL\""
par DummyScenario.car[29].cellularNic typename "\"simu5g.stack.NRNicUe\""
par DummyScenario.car[29].cellularNic displayStringTextFormat "\"%a (%i)\\n%m\""
par DummyScenario.car[29].cellularNic recordPcap false
par DummyScenario.car[29].cellularNic numPcapRecorders 0
par DummyScenario.car[29].cellularNic interfaceTableModule "\"DummyScenario.car[29].interfaceTable\""
par DummyScenario.car[29].cellularNic routingTableModule "\"DummyScenario.car[29].ipv4.routingTable\""
par DummyScenario.car[29].cellularNic LtePdcpRrcType "\"NRPdcpRrcUe\""
par DummyScenario.car[29].cellularNic LteMacType "\"LteMacUeD2D\""
par DummyScenario.car[29].cellularNic PacketFlowManagerType "\"PacketFlowManagerUe\""
par DummyScenario.car[29].cellularNic hasRNISupport false
par DummyScenario.car[29].cellularNic LtePhyType "\"NRPhyUe\""
par DummyScenario.car[29].cellularNic nodeType "\"UE\""
par DummyScenario.car[29].cellularNic processingDelayIn 0s
attr unit s
par DummyScenario.car[29].cellularNic processingDelayOut 0s
attr unit s
par DummyScenario.car[29].cellularNic LteChannelModelType "\"LteRealisticChannelModel\""
par DummyScenario.car[29].cellularNic d2dCapable true
par DummyScenario.car[29].cellularNic dualConnectivityEnabled false
par DummyScenario.car[29].cellularNic numCarriers 1
par DummyScenario.car[29].cellularNic address "\"0A-AA-00-00-00-21\""
par DummyScenario.car[29].cellularNic d2dInitialMode false
par DummyScenario.car[29].cellularNic NRMacType "\"NRMacUe\""
par DummyScenario.car[29].cellularNic NRPhyType "\"NRPhyUe\""
par DummyScenario.car[29].cellularNic NRChannelModelType "\"NRChannelModel\""
par DummyScenario.car[29].cellularNic NRPacketFlowManagerType "\"NRPacketFlowManagerUe\""
par DummyScenario.car[29].cellularNic numNRCarriers 1
par DummyScenario.car[29].at typename "\"inet.common.MessageDispatcher\""
par DummyScenario.car[29].at displayStringTextFormat "\"processed %p pk (%l)\""
par DummyScenario.car[29].tn typename "\"inet.common.MessageDispatcher\""
par DummyScenario.car[29].tn displayStringTextFormat "\"processed %p pk (%l)\""
par DummyScenario.car[29].nl typename "\"inet.common.MessageDispatcher\""
par DummyScenario.car[29].nl displayStringTextFormat "\"processed %p pk (%l)\""
par DummyScenario.car[29].configurator typename "\"inet.networklayer.configurator.ipv4.HostAutoConfigurator\""
par DummyScenario.car[29].configurator interfaceTableModule "\"DummyScenario.car[29].interfaceTable\""
par DummyScenario.car[29].configurator interfaces "\"wlan\""
par DummyScenario.car[29].configurator addressBase "\"10.0.0.0\""
par DummyScenario.car[29].configurator netmask "\"255.0.0.0\""
par DummyScenario.car[29].configurator mcastGroups "\"\""
par DummyScenario.car[29] typename "\"simu5g.nodes.cars.NRCar\""
par DummyScenario.car[29] mobilityType "\"VeinsInetMobility\""
par DummyScenario.car[29] numApps 0
par DummyScenario.car[29] hasUdp true
par DummyScenario.car[29] hasTcp true
par DummyScenario.car[29] hasSctp false
par DummyScenario.car[29] nodeType "\"UE\""
par DummyScenario.car[29] masterId 0
par DummyScenario.car[29] macNodeId 1054
par DummyScenario.car[29] macCellId 0
par DummyScenario.car[29] nicType "\"NRNicUe\""
par DummyScenario.car[29] hasIpv4 true
par DummyScenario.car[29] hasIpv6 false
par DummyScenario.car[29] numEthInterfaces 0
par DummyScenario.car[29] extHostAddress "\"\""
par DummyScenario.car[29] numLoInterfaces 1
par DummyScenario.car[29] numPcapRecorders 0
par DummyScenario.car[29] hasRNISupport false
par DummyScenario.car[29] nrMasterId 1
par DummyScenario.car[29] nrMacNodeId 2078
par DummyScenario.car[29] nrMacCellId 1
par DummyScenario typename "\"syntetictracegenerator.simulations.Villarosa_gnb_only_test_non_mesh.DummyScenario\""
par DummyScenario playgroundSizeX 20000m
attr unit m
par DummyScenario playgroundSizeY 20000m
attr unit m
par DummyScenario playgroundSizeZ 50m
attr unit m

