version 3
run General-0-20220225-00:43:00-571726
attr configname General
attr datetime 20220225-00:43:00
attr datetimef 20220225-004300
attr experiment General
attr inifile omnetpp.ini
attr iterationvars ""
attr iterationvarsd ""
attr iterationvarsf ""
attr measurement ""
attr network syntetictracegenerator.simulations.Villarosa.DummyScenario
attr processid 571726
attr repetition 0
attr replication #0
attr resultdir results
attr runnumber 0
attr seedset 0
config image-path ../../images:../../../inet4.3/images:../../../Simu5G/images:../../../veins/subprojects/veins_inet/images:../../../veins/images
config cmdenv-express-mode true
config cmdenv-autoflush true
config image-path ../../images
config network syntetictracegenerator.simulations.Villarosa.DummyScenario
config debug-on-errors false
config print-undisposed false
config **.sctp.**.scalar-recording false
config **.sctp.**.vector-recording false
config **.routingRecorder.enabled false
config *.playgroundSizeX 20000m
config *.playgroundSizeY 20000m
config *.playgroundSizeZ 50m
config *.veinsManager.host "\"localhost\""
config *.veinsManager.moduleType "\"simu5g.nodes.cars.NRCar\""
config *.veinsManager.moduleName "\"car\""
config *.veinsManager.launchConfig "xmldoc(\"heterogeneous.launchd.xml\")"
config *.veinsManager.updateInterval 0.1s
config *.car[*].mobilityType "\"VeinsInetMobility\""
config **.numBands 25
config **.ueTxPower 26
config **.eNodeBTxPower 46
config *.car[*].cellularNic.nrPhy.dynamicCellAssociation true
config *.car[*].masterId 0
config *.car[*].macCellId 0
config *.car[*].nrMasterId 1
config *.car[*].nrMacCellId 1
config **.gNodeB1.macCellId 1
config **.gNodeB1.macNodeId 1
config **.gNodeB2.macCellId 2
config **.gNodeB2.macNodeId 2
config *.car[*].cellularNic.nrPhy.enableHandover true
config *.gNodeB*.cellularNic.phy.enableHandover true
config *.gNodeB*.cellularNic.phy.handoverLatency 50ms
config *.gNodeB*.cellInfo.broadcastMessageInterval 1s
config *.gNodeB*.numX2Apps 2
config *.gNodeB*.x2App[*].server.localPort "5000 + ancestorIndex(1)"
config *.gNodeB1.x2App[0].client.connectAddress "\"gNodeB2%x2ppp0\""
config *.gNodeB1.x2App[1].client.connectAddress "\"gNodeB3%x2ppp0\""
config *.gNodeB2.x2App[0].client.connectAddress "\"gNodeB1%x2ppp0\""
config *.gNodeB2.x2App[1].client.connectAddress "\"gNodeB3%x2ppp0\""
config *.gNodeB3.x2App[0].client.connectAddress "\"gNodeB1%x2ppp0\""
config *.gNodeB3.x2App[1].client.connectAddress "\"gNodeB2%x2ppp0\""
config **.sctp.nagleEnabled false
config **.sctp.enableHeartbeats false

scalar DummyScenario.gNodeB1.x2App[0].client ums 1452
scalar DummyScenario.gNodeB1.x2App[1].client ums 1452
scalar DummyScenario.gNodeB2.x2App[0].client ums 1452
scalar DummyScenario.gNodeB2.x2App[1].client ums 1452
scalar DummyScenario.gNodeB3.x2App[0].client ums 1452
scalar DummyScenario.gNodeB3.x2App[1].client ums 1452
par DummyScenario.car[1].interfaceTable typename "\"inet.networklayer.common.InterfaceTable\""
par DummyScenario.car[1].interfaceTable displayAddresses false
par DummyScenario.car[1].mobility typename "\"org.car2x.veins.subprojects.veins_inet.VeinsInetMobility\""
par DummyScenario.car[1].mobility subjectModule "\"^\""
par DummyScenario.car[1].mobility coordinateSystemModule "\"\""
par DummyScenario.car[1].mobility displayStringTextFormat "\"p: %p\\nv: %v\""
par DummyScenario.car[1].mobility updateDisplayString true
par DummyScenario.car[1].mobility constraintAreaMinX "-inf m"
attr unit m
par DummyScenario.car[1].mobility constraintAreaMinY "-inf m"
attr unit m
par DummyScenario.car[1].mobility constraintAreaMinZ "-inf m"
attr unit m
par DummyScenario.car[1].mobility constraintAreaMaxX "inf m"
attr unit m
par DummyScenario.car[1].mobility constraintAreaMaxY "inf m"
attr unit m
par DummyScenario.car[1].mobility constraintAreaMaxZ "inf m"
attr unit m
par DummyScenario.car[1].mobility initFromDisplayString true
par DummyScenario.car[1].udp typename "\"inet.transportlayer.udp.Udp\""
par DummyScenario.car[1].udp interfaceTableModule "\"DummyScenario.car[1].interfaceTable\""
par DummyScenario.car[1].udp icmpModule "\"^.ipv4.icmp\""
par DummyScenario.car[1].udp icmpv6Module "\"^.ipv6.icmpv6\""
par DummyScenario.car[1].udp crcMode "\"declared\""
attr enum disabled,declared,computed
scalar DummyScenario.car[1].udp packetReceived:count 0
attr interpolationmode none
attr source packetReceived
attr title "packets received, count"
scalar DummyScenario.car[1].udp packetReceived:sum(packetBytes) 0
attr interpolationmode none
attr source packetReceived
attr title "packets received, sum(packetBytes)"
scalar DummyScenario.car[1].udp packetSent:count 0
attr interpolationmode none
attr source packetSent
attr title "packets sent, count"
scalar DummyScenario.car[1].udp packetSent:sum(packetBytes) 0
attr interpolationmode none
attr source packetSent
attr title "packets sent, sum(packetBytes)"
scalar DummyScenario.car[1].udp passedUpPk:count 0
attr interpolationmode none
attr source packetSentToUpper
attr title "packets passed up, count"
scalar DummyScenario.car[1].udp droppedPkWrongPort:count 0
attr interpolationmode none
attr source packetDropReasonIsNoPortFound(packetDropped)
attr title "packets dropped (wrong port), count"
scalar DummyScenario.car[1].udp droppedPkBadChecksum:count 0
attr interpolationmode none
attr source packetDropReasonIsIncorrectlyReceived(packetDropped)
attr title "packets dropped (checksum error), count"
par DummyScenario.car[1].tcp typename "\"inet.transportlayer.tcp.Tcp\""
par DummyScenario.car[1].tcp crcMode "\"declared\""
attr enum declared,computed
par DummyScenario.car[1].tcp advertisedWindow 7504
par DummyScenario.car[1].tcp delayedAcksEnabled false
par DummyScenario.car[1].tcp nagleEnabled true
par DummyScenario.car[1].tcp limitedTransmitEnabled false
par DummyScenario.car[1].tcp increasedIWEnabled false
par DummyScenario.car[1].tcp sackSupport false
par DummyScenario.car[1].tcp windowScalingSupport false
par DummyScenario.car[1].tcp windowScalingFactor -1
par DummyScenario.car[1].tcp timestampSupport false
par DummyScenario.car[1].tcp mss 536
par DummyScenario.car[1].tcp msl 120s
attr unit s
par DummyScenario.car[1].tcp tcpAlgorithmClass "\"TcpReno\""
attr enum TcpVegas,TcpWestwood,TcpNewReno,TcpReno,TcpTahoe,TcpNoCongestionControl
par DummyScenario.car[1].tcp useDataNotification false
par DummyScenario.car[1].tcp dupthresh 3
par DummyScenario.car[1].tcp initialSsthresh 4294967295
par DummyScenario.car[1].tcp stopOperationExtraTime 0s
attr unit s
par DummyScenario.car[1].tcp stopOperationTimeout 2s
attr unit s
par DummyScenario.car[1].tcp ecnWillingness false
par DummyScenario.car[1].tcp dctcpGamma 0.0625
par DummyScenario.car[1].ipv4.transportIn.channel typename "\"ned.IdealChannel\""
par DummyScenario.car[1].ipv4.up.out[0].channel typename "\"ned.IdealChannel\""
par DummyScenario.car[1].ipv4.lp.out[2].channel typename "\"ned.IdealChannel\""
par DummyScenario.car[1].ipv4.ifIn.channel typename "\"ned.IdealChannel\""
par DummyScenario.car[1].ipv4.configurator typename "\"inet.networklayer.configurator.ipv4.HostAutoConfigurator\""
par DummyScenario.car[1].ipv4.configurator interfaceTableModule "\"DummyScenario.car[1].interfaceTable\""
par DummyScenario.car[1].ipv4.configurator interfaces "\"wlan\""
par DummyScenario.car[1].ipv4.configurator addressBase "\"10.0.0.0\""
par DummyScenario.car[1].ipv4.configurator netmask "\"255.0.0.0\""
par DummyScenario.car[1].ipv4.configurator mcastGroups "\"\""
par DummyScenario.car[1].ipv4.routingTable typename "\"inet.networklayer.ipv4.Ipv4RoutingTable\""
par DummyScenario.car[1].ipv4.routingTable interfaceTableModule "\"DummyScenario.car[1].interfaceTable\""
par DummyScenario.car[1].ipv4.routingTable routerId "\"auto\""
par DummyScenario.car[1].ipv4.routingTable netmaskRoutes "\"*\""
par DummyScenario.car[1].ipv4.routingTable forwarding false
par DummyScenario.car[1].ipv4.routingTable multicastForwarding false
par DummyScenario.car[1].ipv4.routingTable useAdminDist false
par DummyScenario.car[1].ipv4.routingTable routingFile "\"\""
par DummyScenario.car[1].ipv4.natTable typename "\"inet.networklayer.ipv4.Ipv4NatTable\""
par DummyScenario.car[1].ipv4.natTable networkProtocolModule "\"^.ip\""
par DummyScenario.car[1].ipv4.natTable config "<config/> at content:1"
par DummyScenario.car[1].ipv4.up typename "\"inet.common.MessageDispatcher\""
par DummyScenario.car[1].ipv4.up displayStringTextFormat "\"processed %p pk (%l)\""
par DummyScenario.car[1].ipv4.igmp typename "\"inet.networklayer.ipv4.Igmpv2\""
par DummyScenario.car[1].ipv4.igmp interfaceTableModule "\"DummyScenario.car[1].interfaceTable\""
par DummyScenario.car[1].ipv4.igmp routingTableModule "\"DummyScenario.car[1].ipv4.routingTable\""
par DummyScenario.car[1].ipv4.igmp crcMode "\"declared\""
attr enum declared,computed
par DummyScenario.car[1].ipv4.igmp enabled true
par DummyScenario.car[1].ipv4.igmp robustnessVariable 2
par DummyScenario.car[1].ipv4.igmp queryInterval 125s
attr unit s
par DummyScenario.car[1].ipv4.igmp queryResponseInterval 10s
attr unit s
par DummyScenario.car[1].ipv4.igmp groupMembershipInterval 260s
attr unit s
par DummyScenario.car[1].ipv4.igmp otherQuerierPresentInterval 255s
attr unit s
par DummyScenario.car[1].ipv4.igmp startupQueryInterval 31.25s
attr unit s
par DummyScenario.car[1].ipv4.igmp startupQueryCount 2
par DummyScenario.car[1].ipv4.igmp lastMemberQueryInterval 1s
attr unit s
par DummyScenario.car[1].ipv4.igmp lastMemberQueryCount 2
par DummyScenario.car[1].ipv4.igmp unsolicitedReportInterval 10s
attr unit s
par DummyScenario.car[1].ipv4.icmp typename "\"inet.networklayer.ipv4.Icmp\""
par DummyScenario.car[1].ipv4.icmp interfaceTableModule "\"DummyScenario.car[1].interfaceTable\""
par DummyScenario.car[1].ipv4.icmp routingTableModule "\"DummyScenario.car[1].ipv4.routingTable\""
par DummyScenario.car[1].ipv4.icmp crcMode "\"declared\""
attr enum declared,computed
par DummyScenario.car[1].ipv4.icmp quoteLength 8B
attr unit B
par DummyScenario.car[1].ipv4.mp typename "\"inet.common.MessageDispatcher\""
par DummyScenario.car[1].ipv4.mp displayStringTextFormat "\"processed %p pk (%l)\""
par DummyScenario.car[1].ipv4.ip typename "\"inet.networklayer.ipv4.Ipv4\""
par DummyScenario.car[1].ipv4.ip interfaceTableModule "\"DummyScenario.car[1].interfaceTable\""
par DummyScenario.car[1].ipv4.ip routingTableModule "\"DummyScenario.car[1].ipv4.routingTable\""
par DummyScenario.car[1].ipv4.ip arpModule "\"DummyScenario.car[1].ipv4.arp\""
par DummyScenario.car[1].ipv4.ip icmpModule "\"DummyScenario.car[1].ipv4.icmp\""
par DummyScenario.car[1].ipv4.ip crcMode "\"declared\""
attr enum declared,computed
par DummyScenario.car[1].ipv4.ip timeToLive 32
par DummyScenario.car[1].ipv4.ip multicastTimeToLive 32
par DummyScenario.car[1].ipv4.ip fragmentTimeout 60s
attr unit s
par DummyScenario.car[1].ipv4.ip limitedBroadcast false
par DummyScenario.car[1].ipv4.ip directBroadcastInterfaces "\"\""
scalar DummyScenario.car[1].ipv4.ip packetDropAddressResolutionFailed:count 0
attr interpolationmode none
attr source packetDropReasonIsAddressResolutionFailed(packetDropped)
attr title "packet drop: address resolution failed, count"
scalar DummyScenario.car[1].ipv4.ip packetDropAddressResolutionFailed:sum(packetBytes) 0
attr interpolationmode none
attr source packetDropReasonIsAddressResolutionFailed(packetDropped)
attr title "packet drop: address resolution failed, sum(packetBytes)"
scalar DummyScenario.car[1].ipv4.ip packetDropHopLimitReached:count 0
attr interpolationmode none
attr source packetDropReasonIsHopLimitReached(packetDropped)
attr title "packet drop: hop limit reached, count"
scalar DummyScenario.car[1].ipv4.ip packetDropHopLimitReached:sum(packetBytes) 0
attr interpolationmode none
attr source packetDropReasonIsHopLimitReached(packetDropped)
attr title "packet drop: hop limit reached, sum(packetBytes)"
scalar DummyScenario.car[1].ipv4.ip packetDropForwardingDisabled:count 0
attr interpolationmode none
attr source packetDropReasonIsForwardingDisabled(packetDropped)
attr title "packet drop: forwarding disabled, count"
scalar DummyScenario.car[1].ipv4.ip packetDropForwardingDisabled:sum(packetBytes) 0
attr interpolationmode none
attr source packetDropReasonIsForwardingDisabled(packetDropped)
attr title "packet drop: forwarding disabled, sum(packetBytes)"
scalar DummyScenario.car[1].ipv4.ip packetDropNoInterfaceFound:count 0
attr interpolationmode none
attr source packetDropReasonIsNoInterfaceFound(packetDropped)
attr title "packet drop: no interface found, count"
scalar DummyScenario.car[1].ipv4.ip packetDropNoInterfaceFound:sum(packetBytes) 0
attr interpolationmode none
attr source packetDropReasonIsNoInterfaceFound(packetDropped)
attr title "packet drop: no interface found, sum(packetBytes)"
scalar DummyScenario.car[1].ipv4.ip packetDropNoRouteFound:count 0
attr interpolationmode none
attr source packetDropReasonIsNoRouteFound(packetDropped)
attr title "packet drop: no route found, count"
scalar DummyScenario.car[1].ipv4.ip packetDropNoRouteFound:sum(packetBytes) 0
attr interpolationmode none
attr source packetDropReasonIsNoRouteFound(packetDropped)
attr title "packet drop: no route found, sum(packetBytes)"
scalar DummyScenario.car[1].ipv4.ip packetDropUndefined:count 0
attr interpolationmode none
attr source packetDropReasonIsUndefined(packetDropped)
attr title "packet drop: undefined, count"
scalar DummyScenario.car[1].ipv4.ip packetDropUndefined:sum(packetBytes) 0
attr interpolationmode none
attr source packetDropReasonIsUndefined(packetDropped)
attr title "packet drop: undefined, sum(packetBytes)"
par DummyScenario.car[1].ipv4.arp typename "\"inet.networklayer.arp.ipv4.Arp\""
par DummyScenario.car[1].ipv4.arp interfaceTableModule "\"DummyScenario.car[1].interfaceTable\""
par DummyScenario.car[1].ipv4.arp routingTableModule "\"DummyScenario.car[1].ipv4.routingTable\""
par DummyScenario.car[1].ipv4.arp retryTimeout 1s
attr unit s
par DummyScenario.car[1].ipv4.arp retryCount 3
par DummyScenario.car[1].ipv4.arp cacheTimeout 120s
attr unit s
par DummyScenario.car[1].ipv4.arp proxyArpInterfaces "\"*\""
scalar DummyScenario.car[1].ipv4.arp arpResolutionFailed:count 0
attr title "ARP failed resolutions, count"
scalar DummyScenario.car[1].ipv4.arp arpResolutionCompleted:count 0
attr title "ARP completed resolutions, count"
scalar DummyScenario.car[1].ipv4.arp arpResolutionInitiated:count 0
attr title "ARP initiated resolutions, count"
scalar DummyScenario.car[1].ipv4.arp arpReplySent:count 0
attr source arpReplySent
attr title "ARP replies sent, count"
scalar DummyScenario.car[1].ipv4.arp arpReplySent:sum(packetBytes) 0
attr source arpReplySent
attr title "ARP replies sent, sum(packetBytes)"
scalar DummyScenario.car[1].ipv4.arp arpRequestSent:count 0
attr source arpRequestSent
attr title "ARP request sent, count"
scalar DummyScenario.car[1].ipv4.arp arpRequestSent:sum(packetBytes) 0
attr source arpRequestSent
attr title "ARP request sent, sum(packetBytes)"
par DummyScenario.car[1].ipv4.lp typename "\"inet.common.MessageDispatcher\""
par DummyScenario.car[1].ipv4.lp displayStringTextFormat "\"processed %p pk (%l)\""
par DummyScenario.car[1].ipv4 typename "\"inet.networklayer.ipv4.Ipv4NetworkLayer\""
par DummyScenario.car[1].ipv4 forwarding false
par DummyScenario.car[1].ipv4 multicastForwarding false
par DummyScenario.car[1].ipv4 interfaceTableModule "\"DummyScenario.car[1].interfaceTable\""
par DummyScenario.car[1].ipv4 displayStringTextFormat "\"%i\""
par DummyScenario.car[1].lo[0].upperLayerIn.channel typename "\"ned.IdealChannel\""
par DummyScenario.car[1].lo[0].lo.upperLayerOut.channel typename "\"ned.IdealChannel\""
par DummyScenario.car[1].lo[0].lo typename "\"inet.linklayer.loopback.Loopback\""
par DummyScenario.car[1].lo[0].lo interfaceTableModule "\"DummyScenario.car[1].interfaceTable\""
par DummyScenario.car[1].lo[0].lo mtu 4470B
attr unit B
scalar DummyScenario.car[1].lo[0].lo rcvdPkFromHl:count 0
attr interpolationmode none
attr source packetReceivedFromUpper
attr title "packets received from higher layer, count"
scalar DummyScenario.car[1].lo[0].lo rcvdPkFromHl:sum(packetBytes) 0
attr interpolationmode none
attr source packetReceivedFromUpper
attr title "packets received from higher layer, sum(packetBytes)"
scalar DummyScenario.car[1].lo[0].lo passedUpPk:count 0
attr interpolationmode none
attr source packetSentToUpper
attr title "packets passed to higher layer, count"
scalar DummyScenario.car[1].lo[0].lo passedUpPk:sum(packetBytes) 0
attr interpolationmode none
attr source packetSentToUpper
attr title "packets passed to higher layer, sum(packetBytes)"
par DummyScenario.car[1].lo[0] typename "\"inet.linklayer.loopback.LoopbackInterface\""
par DummyScenario.car[1].lo[0] displayStringTextFormat "\"%a (%i)\\n%m\""
par DummyScenario.car[1].lo[0] recordPcap false
par DummyScenario.car[1].lo[0] numPcapRecorders 0
par DummyScenario.car[1].lo[0] interfaceTableModule "\"DummyScenario.car[1].interfaceTable\""
par DummyScenario.car[1].cellularNic.ip2nic.upperLayerOut.channel typename "\"ned.DelayChannel\""
par DummyScenario.car[1].cellularNic.ip2nic.upperLayerOut.channel disabled false
par DummyScenario.car[1].cellularNic.ip2nic.upperLayerOut.channel delay 0s
attr unit s
par DummyScenario.car[1].cellularNic.upperLayerIn.channel typename "\"ned.DelayChannel\""
par DummyScenario.car[1].cellularNic.upperLayerIn.channel disabled false
par DummyScenario.car[1].cellularNic.upperLayerIn.channel delay 0s
attr unit s
par DummyScenario.car[1].cellularNic.ip2nic typename "\"simu5g.stack.ip2nic.IP2Nic\""
par DummyScenario.car[1].cellularNic.ip2nic nodeType "\"UE\""
par DummyScenario.car[1].cellularNic.ip2nic interfaceTableModule "\"DummyScenario.car[1].interfaceTable\""
par DummyScenario.car[1].cellularNic.ip2nic routingTableModule "\"DummyScenario.car[1].ipv4.routingTable\""
par DummyScenario.car[1].cellularNic.pdcpRrc typename "\"simu5g.stack.pdcp_rrc.NRPdcpRrcUe\""
par DummyScenario.car[1].cellularNic.pdcpRrc headerCompressedSize -1B
attr unit B
par DummyScenario.car[1].cellularNic.pdcpRrc conversationalRlc 1
attr enum TM,UM,AM,UNKNOWN_RLC_TYPE
par DummyScenario.car[1].cellularNic.pdcpRrc streamingRlc 1
attr enum TM,UM,AM,UNKNOWN_RLC_TYPE
par DummyScenario.car[1].cellularNic.pdcpRrc interactiveRlc 1
attr enum TM,UM,AM,UNKNOWN_RLC_TYPE
par DummyScenario.car[1].cellularNic.pdcpRrc backgroundRlc 1
attr enum TM,UM,AM,UNKNOWN_RLC_TYPE
scalar DummyScenario.car[1].cellularNic.pdcpRrc sentPacketToLowerLayer:count 0
attr interpolationmode none
attr source sentPacketToLowerLayer
scalar DummyScenario.car[1].cellularNic.pdcpRrc sentPacketToLowerLayer:sum(packetBytes) 0
attr interpolationmode none
attr source sentPacketToLowerLayer
scalar DummyScenario.car[1].cellularNic.pdcpRrc sentPacketToUpperLayer:count 0
attr interpolationmode none
attr source sentPacketToUpperLayer
scalar DummyScenario.car[1].cellularNic.pdcpRrc sentPacketToUpperLayer:sum(packetBytes) 0
attr interpolationmode none
attr source sentPacketToUpperLayer
scalar DummyScenario.car[1].cellularNic.pdcpRrc receivedPacketFromLowerLayer:count 0
attr interpolationmode none
attr source receivedPacketFromLowerLayer
scalar DummyScenario.car[1].cellularNic.pdcpRrc receivedPacketFromLowerLayer:sum(packetBytes) 0
attr interpolationmode none
attr source receivedPacketFromLowerLayer
scalar DummyScenario.car[1].cellularNic.pdcpRrc receivedPacketFromUpperLayer:count 0
attr interpolationmode none
attr source receivedPacketFromUpperLayer
scalar DummyScenario.car[1].cellularNic.pdcpRrc receivedPacketFromUpperLayer:sum(packetBytes) 0
attr interpolationmode none
attr source receivedPacketFromUpperLayer
par DummyScenario.car[1].cellularNic.rlc.tm typename "\"simu5g.stack.rlc.LteRlcTm\""
par DummyScenario.car[1].cellularNic.rlc.tm queueSize 2097152B
attr unit B
scalar DummyScenario.car[1].cellularNic.rlc.tm rlcPacketLossDl:mean -nan
attr source rlcPacketLossDl
attr title "rlc Packet Loss, mean"
attr unit ""
scalar DummyScenario.car[1].cellularNic.rlc.tm rlcPacketLossDl:sum 0
attr source rlcPacketLossDl
attr title "rlc Packet Loss, sum"
attr unit ""
scalar DummyScenario.car[1].cellularNic.rlc.tm rlcPacketLossUl:mean -nan
attr source rlcPacketLossUl
attr title "rlc Packet Loss, mean"
attr unit ""
scalar DummyScenario.car[1].cellularNic.rlc.tm rlcPacketLossUl:sum 0
attr source rlcPacketLossUl
attr title "rlc Packet Loss, sum"
attr unit ""
scalar DummyScenario.car[1].cellularNic.rlc.tm sentPacketToLowerLayer:count 0
attr interpolationmode none
attr source sentPacketToLowerLayer
scalar DummyScenario.car[1].cellularNic.rlc.tm sentPacketToLowerLayer:sum(packetBytes) 0
attr interpolationmode none
attr source sentPacketToLowerLayer
scalar DummyScenario.car[1].cellularNic.rlc.tm sentPacketToUpperLayer:count 0
attr interpolationmode none
attr source sentPacketToUpperLayer
scalar DummyScenario.car[1].cellularNic.rlc.tm sentPacketToUpperLayer:sum(packetBytes) 0
attr interpolationmode none
attr source sentPacketToUpperLayer
scalar DummyScenario.car[1].cellularNic.rlc.tm receivedPacketFromLowerLayer:count 0
attr interpolationmode none
attr source receivedPacketFromLowerLayer
scalar DummyScenario.car[1].cellularNic.rlc.tm receivedPacketFromLowerLayer:sum(packetBytes) 0
attr interpolationmode none
attr source receivedPacketFromLowerLayer
scalar DummyScenario.car[1].cellularNic.rlc.tm receivedPacketFromUpperLayer:count 0
attr interpolationmode none
attr source receivedPacketFromUpperLayer
scalar DummyScenario.car[1].cellularNic.rlc.tm receivedPacketFromUpperLayer:sum(packetBytes) 0
attr interpolationmode none
attr source receivedPacketFromUpperLayer
par DummyScenario.car[1].cellularNic.rlc.um typename "\"simu5g.stack.rlc.LteRlcUmD2D\""
par DummyScenario.car[1].cellularNic.rlc.um queueSize 2097152B
attr unit B
par DummyScenario.car[1].cellularNic.rlc.um mapAllLcidsToSingleBearer false
scalar DummyScenario.car[1].cellularNic.rlc.um rlcPduPacketLossD2D:mean -nan
attr source rlcPduPacketLossD2D
attr title "rlc Packet Loss, mean"
attr unit ""
scalar DummyScenario.car[1].cellularNic.rlc.um rlcPduThroughputD2D:mean -nan
attr source rlcPduThroughputD2D
attr title "Throughput at the rlc layer D2D, mean"
attr unit Bps
scalar DummyScenario.car[1].cellularNic.rlc.um rlcPduDelayD2D:mean -nan
attr source rlcPduDelayD2D
attr title "Delay at the rlc layer D2D, mean"
attr unit s
scalar DummyScenario.car[1].cellularNic.rlc.um rlcCellThroughputD2D:mean -nan
attr source rlcCellThroughputD2D
attr title "Cell Throughput at the rlc layer D2D, mean"
attr unit Bps
scalar DummyScenario.car[1].cellularNic.rlc.um rlcCellPacketLossD2D:mean -nan
attr source rlcCellPacketLossD2D
attr title "rlc Cell Packet Loss, mean"
attr unit ""
scalar DummyScenario.car[1].cellularNic.rlc.um rlcPacketLossD2D:mean -nan
attr source rlcPacketLossD2D
attr title "rlc Packet Loss, mean"
attr unit ""
scalar DummyScenario.car[1].cellularNic.rlc.um rlcThroughputD2D:mean -nan
attr source rlcThroughputD2D
attr title "Throughput at the rlc layer D2D, mean"
attr unit Bps
scalar DummyScenario.car[1].cellularNic.rlc.um rlcDelayD2D:mean -nan
attr source rlcDelayD2D
attr title "Delay at the rlc layer D2D, mean"
attr unit s
scalar DummyScenario.car[1].cellularNic.rlc.um rlcPduPacketLossDl:mean -nan
attr source rlcPduPacketLossDl
attr title "rlc Packet Loss, mean"
attr unit ""
scalar DummyScenario.car[1].cellularNic.rlc.um rlcPduPacketLossUl:mean -nan
attr source rlcPduPacketLossUl
attr title "rlc Packet Loss, mean"
attr unit ""
scalar DummyScenario.car[1].cellularNic.rlc.um rlcPduThroughputUl:mean -nan
attr source rlcPduThroughputUl
attr title "Throughput at the rlc layer UL, mean"
attr unit Bps
scalar DummyScenario.car[1].cellularNic.rlc.um rlcPduDelayUl:mean -nan
attr source rlcPduDelayUl
attr title "Delay at the rlc layer UL, mean"
attr unit s
scalar DummyScenario.car[1].cellularNic.rlc.um rlcPduThroughputDl:mean -nan
attr source rlcPduThroughputDl
attr title "Throughput at the rlc layer DL, mean"
attr unit Bps
scalar DummyScenario.car[1].cellularNic.rlc.um rlcPduDelayDl:mean -nan
attr source rlcPduDelayDl
attr title "Delay at the rlc layer UL, mean"
attr unit s
scalar DummyScenario.car[1].cellularNic.rlc.um rlcCellPacketLossUl:mean -nan
attr source rlcCellPacketLossUl
attr title "rlc Cell Packet Loss, mean"
attr unit ""
scalar DummyScenario.car[1].cellularNic.rlc.um rlcCellPacketLossDl:mean -nan
attr source rlcCellPacketLossDl
attr title "rlc Cell Packet Loss, mean"
attr unit ""
scalar DummyScenario.car[1].cellularNic.rlc.um rlcCellThroughputDl:mean -nan
attr source rlcCellThroughputDl
attr title "Cell Throughput at the rlc layer DL, mean"
attr unit Bps
scalar DummyScenario.car[1].cellularNic.rlc.um rlcCellThroughputUl:mean -nan
attr source rlcCellThroughputUl
attr title "Cell Throughput at the rlc layer UL, mean"
attr unit Bps
scalar DummyScenario.car[1].cellularNic.rlc.um rlcPacketLossTotal:mean -nan
attr source rlcPacketLossTotal
attr title "rlc Packet Loss, mean"
attr unit ""
scalar DummyScenario.car[1].cellularNic.rlc.um rlcThroughputUl:mean -nan
attr source rlcThroughputUl
attr title "Throughput at the rlc layer UL, mean"
attr unit Bps
scalar DummyScenario.car[1].cellularNic.rlc.um rlcDelayUl:mean -nan
attr source rlcDelayUl
attr title "Delay at the rlc layer UL, mean"
attr unit s
scalar DummyScenario.car[1].cellularNic.rlc.um rlcThroughputDl:mean -nan
attr source rlcThroughputDl
attr title "Throughput at the rlc layer DL, mean"
attr unit Bps
scalar DummyScenario.car[1].cellularNic.rlc.um rlcDelayDl:mean -nan
attr source rlcDelayDl
attr title "Delay at the rlc layer DL, mean"
attr unit s
scalar DummyScenario.car[1].cellularNic.rlc.um rlcPacketLossDl:mean -nan
attr source rlcPacketLossDl
attr title "rlc Packet Loss, mean"
attr unit ""
scalar DummyScenario.car[1].cellularNic.rlc.um rlcPacketLossDl:sum 0
attr source rlcPacketLossDl
attr title "rlc Packet Loss, sum"
attr unit ""
scalar DummyScenario.car[1].cellularNic.rlc.um rlcPacketLossUl:mean -nan
attr source rlcPacketLossUl
attr title "rlc Packet Loss, mean"
attr unit ""
scalar DummyScenario.car[1].cellularNic.rlc.um rlcPacketLossUl:sum 0
attr source rlcPacketLossUl
attr title "rlc Packet Loss, sum"
attr unit ""
scalar DummyScenario.car[1].cellularNic.rlc.um sentPacketToLowerLayer:count 0
attr interpolationmode none
attr source sentPacketToLowerLayer
scalar DummyScenario.car[1].cellularNic.rlc.um sentPacketToLowerLayer:sum(packetBytes) 0
attr interpolationmode none
attr source sentPacketToLowerLayer
scalar DummyScenario.car[1].cellularNic.rlc.um sentPacketToUpperLayer:count 0
attr interpolationmode none
attr source sentPacketToUpperLayer
scalar DummyScenario.car[1].cellularNic.rlc.um sentPacketToUpperLayer:sum(packetBytes) 0
attr interpolationmode none
attr source sentPacketToUpperLayer
scalar DummyScenario.car[1].cellularNic.rlc.um receivedPacketFromLowerLayer:count 0
attr interpolationmode none
attr source receivedPacketFromLowerLayer
scalar DummyScenario.car[1].cellularNic.rlc.um receivedPacketFromLowerLayer:sum(packetBytes) 0
attr interpolationmode none
attr source receivedPacketFromLowerLayer
scalar DummyScenario.car[1].cellularNic.rlc.um receivedPacketFromUpperLayer:count 0
attr interpolationmode none
attr source receivedPacketFromUpperLayer
scalar DummyScenario.car[1].cellularNic.rlc.um receivedPacketFromUpperLayer:sum(packetBytes) 0
attr interpolationmode none
attr source receivedPacketFromUpperLayer
par DummyScenario.car[1].cellularNic.rlc.am typename "\"simu5g.stack.rlc.LteRlcAm\""
scalar DummyScenario.car[1].cellularNic.rlc.am rlcPduPacketLossDl:mean -nan
attr source rlcPduPacketLossDl
attr title "rlc Packet Loss, mean"
attr unit ""
scalar DummyScenario.car[1].cellularNic.rlc.am rlcPduPacketLossUl:mean -nan
attr source rlcPduPacketLossUl
attr title "rlc Packet Loss, mean"
attr unit ""
scalar DummyScenario.car[1].cellularNic.rlc.am rlcPduThroughputUl:mean -nan
attr source rlcPduThroughputUl
attr title "Throughput at the rlc layer UL, mean"
attr unit Bps
scalar DummyScenario.car[1].cellularNic.rlc.am rlcPduDelayUl:mean -nan
attr source rlcPduDelayUl
attr title "Delay at the rlc layer UL, mean"
attr unit s
scalar DummyScenario.car[1].cellularNic.rlc.am rlcPduThroughputDl:mean -nan
attr source rlcPduThroughputDl
attr title "Throughput at the rlc layer DL, mean"
attr unit Bps
scalar DummyScenario.car[1].cellularNic.rlc.am rlcPduDelayDl:mean -nan
attr source rlcPduDelayDl
attr title "Delay at the rlc layer UL, mean"
attr unit s
scalar DummyScenario.car[1].cellularNic.rlc.am rlcCellPacketLossUl:mean -nan
attr source rlcCellPacketLossUl
attr title "rlc Cell Packet Loss, mean"
attr unit ""
scalar DummyScenario.car[1].cellularNic.rlc.am rlcCellPacketLossDl:mean -nan
attr source rlcCellPacketLossDl
attr title "rlc Cell Packet Loss, mean"
attr unit ""
scalar DummyScenario.car[1].cellularNic.rlc.am rlcCellThroughputDl:mean -nan
attr source rlcCellThroughputDl
attr title "Cell Throughput at the rlc layer DL, mean"
attr unit Bps
scalar DummyScenario.car[1].cellularNic.rlc.am rlcCellThroughputUl:mean -nan
attr source rlcCellThroughputUl
attr title "Cell Throughput at the rlc layer UL, mean"
attr unit Bps
scalar DummyScenario.car[1].cellularNic.rlc.am rlcPacketLossTotal:mean -nan
attr source rlcPacketLossTotal
attr title "rlc Packet Loss, mean"
attr unit ""
scalar DummyScenario.car[1].cellularNic.rlc.am rlcThroughputUl:mean -nan
attr source rlcThroughputUl
attr title "Throughput at the rlc layer UL, mean"
attr unit Bps
scalar DummyScenario.car[1].cellularNic.rlc.am rlcDelayUl:mean -nan
attr source rlcDelayUl
attr title "Delay at the rlc layer UL, mean"
attr unit s
scalar DummyScenario.car[1].cellularNic.rlc.am rlcThroughputDl:mean -nan
attr source rlcThroughputDl
attr title "Throughput at the rlc layer DL, mean"
attr unit Bps
scalar DummyScenario.car[1].cellularNic.rlc.am rlcDelayDl:mean -nan
attr source rlcDelayDl
attr title "Delay at the rlc layer UL, mean"
attr unit s
scalar DummyScenario.car[1].cellularNic.rlc.am rlcPacketLossDl:mean -nan
attr source rlcPacketLossDl
attr title "rlc Packet Loss, mean"
attr unit ""
scalar DummyScenario.car[1].cellularNic.rlc.am rlcPacketLossUl:mean -nan
attr source rlcPacketLossUl
attr title "rlc Packet Loss, mean"
attr unit ""
par DummyScenario.car[1].cellularNic.rlc.mux typename "\"simu5g.stack.rlc.LteRlcMux\""
par DummyScenario.car[1].cellularNic.rlc typename "\"simu5g.stack.rlc.LteRlc\""
par DummyScenario.car[1].cellularNic.rlc LteRlcUmType "\"LteRlcUm\""
par DummyScenario.car[1].cellularNic.rlc d2dCapable true
par DummyScenario.car[1].cellularNic.rlc umType "\"LteRlcUmD2D\""
par DummyScenario.car[1].cellularNic.mac typename "\"simu5g.stack.mac.LteMacUeD2D\""
par DummyScenario.car[1].cellularNic.mac interfaceTableModule "\"DummyScenario.car[1].interfaceTable\""
par DummyScenario.car[1].cellularNic.mac queueSize 2097152B
attr unit B
par DummyScenario.car[1].cellularNic.mac muMimo true
par DummyScenario.car[1].cellularNic.mac harqProcesses 8
par DummyScenario.car[1].cellularNic.mac maxHarqRtx 3
par DummyScenario.car[1].cellularNic.mac harqFbEvaluationTimer 4
par DummyScenario.car[1].cellularNic.mac statDisplay false
par DummyScenario.car[1].cellularNic.mac usePreconfiguredTxParams false
par DummyScenario.car[1].cellularNic.mac d2dCqi 7
scalar DummyScenario.car[1].cellularNic.mac rcvdD2DModeSwitchNotification:count 0
attr source rcvdD2DModeSwitchNotification
attr title "Reception of mode switch notification (tx side), count"
attr unit ""
scalar DummyScenario.car[1].cellularNic.mac macThroughputD2D:mean -nan
attr source macThroughputD2D
attr title "Throughput at the MAC layer D2D, mean"
attr unit Bps
scalar DummyScenario.car[1].cellularNic.mac macDelayD2D:mean -nan
attr source macDelayD2D
attr title "Delay at the MAC layer D2D, mean"
attr unit s
scalar DummyScenario.car[1].cellularNic.mac macPacketLossD2D:mean -nan
attr source macPacketLossD2D
attr title "Mac Packet Loss D2D, mean"
attr unit ""
scalar DummyScenario.car[1].cellularNic.mac harqErrorRateD2D:mean -nan
attr source harqErrorRateD2D
attr title "Harq Error Rate D2D, mean"
attr unit ""
scalar DummyScenario.car[1].cellularNic.mac harqErrorRate_4th_D2D:mean -nan
attr source harqErrorRate_4th_D2D
attr title "Harq Error Rate D2D 4th Tx, mean"
attr unit ""
scalar DummyScenario.car[1].cellularNic.mac harqErrorRate_3rd_D2D:mean -nan
attr source harqErrorRate_3rd_D2D
attr title "Harq Error Rate D2D 3rd Tx, mean"
attr unit ""
scalar DummyScenario.car[1].cellularNic.mac harqErrorRate_2nd_D2D:mean -nan
attr source harqErrorRate_2nd_D2D
attr title "Harq Error Rate D2D 2nd Tx, mean"
attr unit ""
scalar DummyScenario.car[1].cellularNic.mac harqErrorRate_1st_D2D:mean -nan
attr source harqErrorRate_1st_D2D
attr title "Harq Error Rate D2D 1st Tx, mean"
attr unit ""
scalar DummyScenario.car[1].cellularNic.mac measuredItbs:mean -nan
attr source measuredItbs
attr title "TBS index, mean"
attr unit ""
scalar DummyScenario.car[1].cellularNic.mac harqErrorRate_4th_Dl:mean -nan
attr source harqErrorRate_4th_Dl
attr title "Harq Error Rate Dl, mean"
attr unit ""
scalar DummyScenario.car[1].cellularNic.mac harqErrorRate_4th_Ul:mean -nan
attr source harqErrorRate_4th_Ul
attr title "Harq Error Rate Ul, mean"
attr unit ""
scalar DummyScenario.car[1].cellularNic.mac harqErrorRate_3rd_Dl:mean -nan
attr source harqErrorRate_3rd_Dl
attr title "Harq Error Rate Dl, mean"
attr unit ""
scalar DummyScenario.car[1].cellularNic.mac harqErrorRate_3rd_Ul:mean -nan
attr source harqErrorRate_3rd_Ul
attr title "Harq Error Rate Ul, mean"
attr unit ""
scalar DummyScenario.car[1].cellularNic.mac harqErrorRate_2nd_Dl:mean -nan
attr source harqErrorRate_2nd_Dl
attr title "Harq Error Rate Dl, mean"
attr unit ""
scalar DummyScenario.car[1].cellularNic.mac harqErrorRate_2nd_Ul:mean -nan
attr source harqErrorRate_2nd_Ul
attr title "Harq Error Rate Ul, mean"
attr unit ""
scalar DummyScenario.car[1].cellularNic.mac harqErrorRate_1st_Dl:mean -nan
attr source harqErrorRate_1st_Dl
attr title "Harq Error Rate Dl, mean"
attr unit ""
scalar DummyScenario.car[1].cellularNic.mac harqErrorRate_1st_Ul:mean -nan
attr source harqErrorRate_1st_Ul
attr title "Harq Error Rate Ul, mean"
attr unit ""
scalar DummyScenario.car[1].cellularNic.mac harqTxAttemptsUl:mean -nan
attr source harqTxAttemptsUl
attr title "Harq Tx Attempts Ul, mean"
attr unit ""
scalar DummyScenario.car[1].cellularNic.mac harqTxAttemptsDl:mean -nan
attr source harqTxAttemptsDl
attr title "Harq Tx Attempts Dl, mean"
attr unit ""
scalar DummyScenario.car[1].cellularNic.mac harqErrorRateDl:mean -nan
attr source harqErrorRateDl
attr title "Harq Error Rate Dl, mean"
attr unit ""
scalar DummyScenario.car[1].cellularNic.mac harqErrorRateUl:mean -nan
attr source harqErrorRateUl
attr title "Harq Error Rate Ul, mean"
attr unit ""
scalar DummyScenario.car[1].cellularNic.mac macBufferOverFlowD2D:mean -nan
attr source macBufferOverFlowD2D
attr title "Mac buffer overflow as function of time, mean"
attr unit Byte/s
scalar DummyScenario.car[1].cellularNic.mac macBufferOverFlowUl:mean -nan
attr source macBufferOverFlowUl
attr title "Mac buffer overflow as function of time, mean"
attr unit Byte/s
scalar DummyScenario.car[1].cellularNic.mac macBufferOverFlowDl:mean -nan
attr source macBufferOverFlowDl
attr title "Mac buffer overflow as function of time, mean"
attr unit Byte/s
scalar DummyScenario.car[1].cellularNic.mac macPacketLossDl:mean -nan
attr source macPacketLossDl
attr title "Mac Packet Loss Dl, mean"
attr unit ""
scalar DummyScenario.car[1].cellularNic.mac macPacketLossUl:mean -nan
attr source macPacketLossUl
attr title "Mac Packet Loss Ul, mean"
attr unit ""
scalar DummyScenario.car[1].cellularNic.mac macCellPacketLossUl:mean -nan
attr source macCellPacketLossUl
attr title "Mac Cell Packet Loss Ul, mean"
attr unit ""
scalar DummyScenario.car[1].cellularNic.mac macCellPacketLossDl:mean -nan
attr source macCellPacketLossDl
attr title "Mac Cell Packet Loss Dl, mean"
attr unit ""
scalar DummyScenario.car[1].cellularNic.mac macCellThroughputDl:mean -nan
attr source macCellThroughputDl
attr title "Cell Throughput at the MAC layer DL, mean"
attr unit Bps
scalar DummyScenario.car[1].cellularNic.mac macCellThroughputUl:mean -nan
attr source macCellThroughputUl
attr title "Cell Throughput at the MAC layer UL, mean"
attr unit Bps
scalar DummyScenario.car[1].cellularNic.mac macThroughputUl:mean -nan
attr source macThroughputUl
attr title "Throughput at the MAC layer UL, mean"
attr unit Bps
scalar DummyScenario.car[1].cellularNic.mac macDelayUl:mean -nan
attr source macDelayUl
attr title "Delay at the MAC layer UL, mean"
attr unit s
scalar DummyScenario.car[1].cellularNic.mac macThroughputDl:mean -nan
attr source macThroughputDl
attr title "Throughput at the MAC layer DL, mean"
attr unit Bps
scalar DummyScenario.car[1].cellularNic.mac macDelayDl:mean -nan
attr source macDelayDl
attr title "Delay at the MAC layer UL, mean"
attr unit s
scalar DummyScenario.car[1].cellularNic.mac sentPacketToLowerLayer:count 0
attr interpolationmode none
attr source sentPacketToLowerLayer
scalar DummyScenario.car[1].cellularNic.mac sentPacketToLowerLayer:sum(packetBytes) 0
attr interpolationmode none
attr source sentPacketToLowerLayer
scalar DummyScenario.car[1].cellularNic.mac sentPacketToUpperLayer:count 0
attr interpolationmode none
attr source sentPacketToUpperLayer
scalar DummyScenario.car[1].cellularNic.mac sentPacketToUpperLayer:sum(packetBytes) 0
attr interpolationmode none
attr source sentPacketToUpperLayer
scalar DummyScenario.car[1].cellularNic.mac receivedPacketFromLowerLayer:count 0
attr interpolationmode none
attr source receivedPacketFromLowerLayer
scalar DummyScenario.car[1].cellularNic.mac receivedPacketFromLowerLayer:sum(packetBytes) 0
attr interpolationmode none
attr source receivedPacketFromLowerLayer
scalar DummyScenario.car[1].cellularNic.mac receivedPacketFromUpperLayer:count 0
attr interpolationmode none
attr source receivedPacketFromUpperLayer
scalar DummyScenario.car[1].cellularNic.mac receivedPacketFromUpperLayer:sum(packetBytes) 0
attr interpolationmode none
attr source receivedPacketFromUpperLayer
par DummyScenario.car[1].cellularNic.phy typename "\"simu5g.stack.phy.NRPhyUe\""
par DummyScenario.car[1].cellularNic.phy ueTxPower 26
par DummyScenario.car[1].cellularNic.phy eNodeBTxPower 46
par DummyScenario.car[1].cellularNic.phy microTxPower 30
par DummyScenario.car[1].cellularNic.phy txDirection "\"OMNI\""
par DummyScenario.car[1].cellularNic.phy txAngle 0
par DummyScenario.car[1].cellularNic.phy dynamicCellAssociation false
par DummyScenario.car[1].cellularNic.phy enableHandover false
par DummyScenario.car[1].cellularNic.phy handoverLatency 0.05s
attr unit s
par DummyScenario.car[1].cellularNic.phy enableMulticastD2DRangeCheck false
par DummyScenario.car[1].cellularNic.phy multicastD2DRange 1000m
attr unit m
par DummyScenario.car[1].cellularNic.phy minRssiDefault true
par DummyScenario.car[1].cellularNic.phy minRssi -99dB
attr unit dB
par DummyScenario.car[1].cellularNic.phy d2dTxPower 26
par DummyScenario.car[1].cellularNic.phy d2dMulticastCaptureEffect true
par DummyScenario.car[1].cellularNic.phy d2dMulticastCaptureEffectFactor "\"RSRP\""
scalar DummyScenario.car[1].cellularNic.phy averageCqiD2D:mean -nan
attr source averageCqiD2D
attr title "Average Cqi reported in D2D, mean"
attr unit cqi
scalar DummyScenario.car[1].cellularNic.phy averageCqiUl:mean -nan
attr source averageCqiUl
attr title "Average Cqi reported in UL, mean"
attr unit cqi
scalar DummyScenario.car[1].cellularNic.phy averageCqiUl:count 0
attr source averageCqiUl
attr title "Average Cqi reported in UL, count"
attr unit cqi
scalar DummyScenario.car[1].cellularNic.phy averageCqiDl:mean -nan
attr source averageCqiDl
attr title "Average Cqi reported in DL, mean"
attr unit cqi
scalar DummyScenario.car[1].cellularNic.phy averageCqiDl:count 0
attr source averageCqiDl
attr title "Average Cqi reported in DL, count"
attr unit cqi
par DummyScenario.car[1].cellularNic.channelModel[0] typename "\"simu5g.stack.phy.ChannelModel.LteRealisticChannelModel\""
par DummyScenario.car[1].cellularNic.channelModel[0] componentCarrierIndex 0
par DummyScenario.car[1].cellularNic.channelModel[0] shadowing true
par DummyScenario.car[1].cellularNic.channelModel[0] scenario "\"URBAN_MACROCELL\""
par DummyScenario.car[1].cellularNic.channelModel[0] nodeb_height 25
par DummyScenario.car[1].cellularNic.channelModel[0] building_height 20
par DummyScenario.car[1].cellularNic.channelModel[0] inside_building false
par DummyScenario.car[1].cellularNic.channelModel[0] street_wide 20
par DummyScenario.car[1].cellularNic.channelModel[0] ue_height 1.5
par DummyScenario.car[1].cellularNic.channelModel[0] tolerateMaxDistViolation false
par DummyScenario.car[1].cellularNic.channelModel[0] useTorus false
par DummyScenario.car[1].cellularNic.channelModel[0] correlation_distance 50
par DummyScenario.car[1].cellularNic.channelModel[0] targetBler 0.01
par DummyScenario.car[1].cellularNic.channelModel[0] harqReduction 0.2
par DummyScenario.car[1].cellularNic.channelModel[0] lambdaMinTh 0.02
par DummyScenario.car[1].cellularNic.channelModel[0] lambdaMaxTh 0.2
par DummyScenario.car[1].cellularNic.channelModel[0] lambdaRatioTh 20
par DummyScenario.car[1].cellularNic.channelModel[0] antennaGainUe 0
par DummyScenario.car[1].cellularNic.channelModel[0] antennGainEnB 18
par DummyScenario.car[1].cellularNic.channelModel[0] antennGainMicro 5
par DummyScenario.car[1].cellularNic.channelModel[0] thermalNoise -104.5
par DummyScenario.car[1].cellularNic.channelModel[0] ue_noise_figure 7
par DummyScenario.car[1].cellularNic.channelModel[0] bs_noise_figure 5
par DummyScenario.car[1].cellularNic.channelModel[0] cable_loss 2
par DummyScenario.car[1].cellularNic.channelModel[0] dynamic_los false
par DummyScenario.car[1].cellularNic.channelModel[0] fixed_los false
par DummyScenario.car[1].cellularNic.channelModel[0] fading true
par DummyScenario.car[1].cellularNic.channelModel[0] fading_type "\"JAKES\""
par DummyScenario.car[1].cellularNic.channelModel[0] fading_paths 6
par DummyScenario.car[1].cellularNic.channelModel[0] delay_rms 3.63e-07
par DummyScenario.car[1].cellularNic.channelModel[0] bgCell_interference true
par DummyScenario.car[1].cellularNic.channelModel[0] extCell_interference true
par DummyScenario.car[1].cellularNic.channelModel[0] downlink_interference false
par DummyScenario.car[1].cellularNic.channelModel[0] uplink_interference false
par DummyScenario.car[1].cellularNic.channelModel[0] d2d_interference true
par DummyScenario.car[1].cellularNic.channelModel[0] enable_extCell_los true
par DummyScenario.car[1].cellularNic.channelModel[0] useRsrqFromLog false
par DummyScenario.car[1].cellularNic.channelModel[0] rsrqShift 22
par DummyScenario.car[1].cellularNic.channelModel[0] rsrqScale 1
par DummyScenario.car[1].cellularNic.channelModel[0] collectSinrStatistics true
scalar DummyScenario.car[1].cellularNic.channelModel[0] distance:mean -nan
attr source distance
attr title "distance between UE and serving eNB, mean"
attr unit meters
scalar DummyScenario.car[1].cellularNic.channelModel[0] measuredSinrUl:mean -nan
attr source measuredSinrUl
attr title "SINR measured at feedback computation, UL, mean"
attr unit dB
scalar DummyScenario.car[1].cellularNic.channelModel[0] measuredSinrDl:mean -nan
attr source measuredSinrDl
attr title "SINR measured at feedback computation, DL, mean"
attr unit dB
scalar DummyScenario.car[1].cellularNic.channelModel[0] rcvdSinrUl:mean -nan
attr source rcvdSinrUl
attr title "SINR measured at packet reception, UL, mean"
attr unit dB
scalar DummyScenario.car[1].cellularNic.channelModel[0] rcvdSinrDl:mean -nan
attr source rcvdSinrDl
attr title "SINR measured at packet reception, DL, mean"
attr unit dB
par DummyScenario.car[1].cellularNic.dlFbGen typename "\"simu5g.stack.phy.feedback.LteDlFeedbackGenerator\""
par DummyScenario.car[1].cellularNic.dlFbGen feedbackType "\"ALLBANDS\""
par DummyScenario.car[1].cellularNic.dlFbGen rbAllocationType "\"localized\""
par DummyScenario.car[1].cellularNic.dlFbGen fbPeriod 6
par DummyScenario.car[1].cellularNic.dlFbGen fbDelay 1
par DummyScenario.car[1].cellularNic.dlFbGen usePeriodic true
par DummyScenario.car[1].cellularNic.dlFbGen initialTxMode "\"SINGLE_ANTENNA_PORT0\""
par DummyScenario.car[1].cellularNic.dlFbGen feedbackGeneratorType "\"IDEAL\""
par DummyScenario.car[1].cellularNic.nrRlc.tm typename "\"simu5g.stack.rlc.LteRlcTm\""
par DummyScenario.car[1].cellularNic.nrRlc.tm queueSize 2097152B
attr unit B
scalar DummyScenario.car[1].cellularNic.nrRlc.tm rlcPacketLossDl:mean -nan
attr source rlcPacketLossDl
attr title "rlc Packet Loss, mean"
attr unit ""
scalar DummyScenario.car[1].cellularNic.nrRlc.tm rlcPacketLossDl:sum 0
attr source rlcPacketLossDl
attr title "rlc Packet Loss, sum"
attr unit ""
scalar DummyScenario.car[1].cellularNic.nrRlc.tm rlcPacketLossUl:mean -nan
attr source rlcPacketLossUl
attr title "rlc Packet Loss, mean"
attr unit ""
scalar DummyScenario.car[1].cellularNic.nrRlc.tm rlcPacketLossUl:sum 0
attr source rlcPacketLossUl
attr title "rlc Packet Loss, sum"
attr unit ""
scalar DummyScenario.car[1].cellularNic.nrRlc.tm sentPacketToLowerLayer:count 0
attr interpolationmode none
attr source sentPacketToLowerLayer
scalar DummyScenario.car[1].cellularNic.nrRlc.tm sentPacketToLowerLayer:sum(packetBytes) 0
attr interpolationmode none
attr source sentPacketToLowerLayer
scalar DummyScenario.car[1].cellularNic.nrRlc.tm sentPacketToUpperLayer:count 0
attr interpolationmode none
attr source sentPacketToUpperLayer
scalar DummyScenario.car[1].cellularNic.nrRlc.tm sentPacketToUpperLayer:sum(packetBytes) 0
attr interpolationmode none
attr source sentPacketToUpperLayer
scalar DummyScenario.car[1].cellularNic.nrRlc.tm receivedPacketFromLowerLayer:count 0
attr interpolationmode none
attr source receivedPacketFromLowerLayer
scalar DummyScenario.car[1].cellularNic.nrRlc.tm receivedPacketFromLowerLayer:sum(packetBytes) 0
attr interpolationmode none
attr source receivedPacketFromLowerLayer
scalar DummyScenario.car[1].cellularNic.nrRlc.tm receivedPacketFromUpperLayer:count 0
attr interpolationmode none
attr source receivedPacketFromUpperLayer
scalar DummyScenario.car[1].cellularNic.nrRlc.tm receivedPacketFromUpperLayer:sum(packetBytes) 0
attr interpolationmode none
attr source receivedPacketFromUpperLayer
par DummyScenario.car[1].cellularNic.nrRlc.um typename "\"simu5g.stack.rlc.LteRlcUmD2D\""
par DummyScenario.car[1].cellularNic.nrRlc.um queueSize 2097152B
attr unit B
par DummyScenario.car[1].cellularNic.nrRlc.um mapAllLcidsToSingleBearer false
scalar DummyScenario.car[1].cellularNic.nrRlc.um rlcPduPacketLossD2D:mean -nan
attr source rlcPduPacketLossD2D
attr title "rlc Packet Loss, mean"
attr unit ""
scalar DummyScenario.car[1].cellularNic.nrRlc.um rlcPduThroughputD2D:mean -nan
attr source rlcPduThroughputD2D
attr title "Throughput at the rlc layer D2D, mean"
attr unit Bps
scalar DummyScenario.car[1].cellularNic.nrRlc.um rlcPduDelayD2D:mean -nan
attr source rlcPduDelayD2D
attr title "Delay at the rlc layer D2D, mean"
attr unit s
scalar DummyScenario.car[1].cellularNic.nrRlc.um rlcCellThroughputD2D:mean -nan
attr source rlcCellThroughputD2D
attr title "Cell Throughput at the rlc layer D2D, mean"
attr unit Bps
scalar DummyScenario.car[1].cellularNic.nrRlc.um rlcCellPacketLossD2D:mean -nan
attr source rlcCellPacketLossD2D
attr title "rlc Cell Packet Loss, mean"
attr unit ""
scalar DummyScenario.car[1].cellularNic.nrRlc.um rlcPacketLossD2D:mean -nan
attr source rlcPacketLossD2D
attr title "rlc Packet Loss, mean"
attr unit ""
scalar DummyScenario.car[1].cellularNic.nrRlc.um rlcThroughputD2D:mean -nan
attr source rlcThroughputD2D
attr title "Throughput at the rlc layer D2D, mean"
attr unit Bps
scalar DummyScenario.car[1].cellularNic.nrRlc.um rlcDelayD2D:mean -nan
attr source rlcDelayD2D
attr title "Delay at the rlc layer D2D, mean"
attr unit s
scalar DummyScenario.car[1].cellularNic.nrRlc.um rlcPduPacketLossDl:mean -nan
attr source rlcPduPacketLossDl
attr title "rlc Packet Loss, mean"
attr unit ""
scalar DummyScenario.car[1].cellularNic.nrRlc.um rlcPduPacketLossUl:mean -nan
attr source rlcPduPacketLossUl
attr title "rlc Packet Loss, mean"
attr unit ""
scalar DummyScenario.car[1].cellularNic.nrRlc.um rlcPduThroughputUl:mean -nan
attr source rlcPduThroughputUl
attr title "Throughput at the rlc layer UL, mean"
attr unit Bps
scalar DummyScenario.car[1].cellularNic.nrRlc.um rlcPduDelayUl:mean -nan
attr source rlcPduDelayUl
attr title "Delay at the rlc layer UL, mean"
attr unit s
scalar DummyScenario.car[1].cellularNic.nrRlc.um rlcPduThroughputDl:mean -nan
attr source rlcPduThroughputDl
attr title "Throughput at the rlc layer DL, mean"
attr unit Bps
scalar DummyScenario.car[1].cellularNic.nrRlc.um rlcPduDelayDl:mean -nan
attr source rlcPduDelayDl
attr title "Delay at the rlc layer UL, mean"
attr unit s
scalar DummyScenario.car[1].cellularNic.nrRlc.um rlcCellPacketLossUl:mean -nan
attr source rlcCellPacketLossUl
attr title "rlc Cell Packet Loss, mean"
attr unit ""
scalar DummyScenario.car[1].cellularNic.nrRlc.um rlcCellPacketLossDl:mean -nan
attr source rlcCellPacketLossDl
attr title "rlc Cell Packet Loss, mean"
attr unit ""
scalar DummyScenario.car[1].cellularNic.nrRlc.um rlcCellThroughputDl:mean -nan
attr source rlcCellThroughputDl
attr title "Cell Throughput at the rlc layer DL, mean"
attr unit Bps
scalar DummyScenario.car[1].cellularNic.nrRlc.um rlcCellThroughputUl:mean -nan
attr source rlcCellThroughputUl
attr title "Cell Throughput at the rlc layer UL, mean"
attr unit Bps
scalar DummyScenario.car[1].cellularNic.nrRlc.um rlcPacketLossTotal:mean -nan
attr source rlcPacketLossTotal
attr title "rlc Packet Loss, mean"
attr unit ""
scalar DummyScenario.car[1].cellularNic.nrRlc.um rlcThroughputUl:mean -nan
attr source rlcThroughputUl
attr title "Throughput at the rlc layer UL, mean"
attr unit Bps
scalar DummyScenario.car[1].cellularNic.nrRlc.um rlcDelayUl:mean -nan
attr source rlcDelayUl
attr title "Delay at the rlc layer UL, mean"
attr unit s
scalar DummyScenario.car[1].cellularNic.nrRlc.um rlcThroughputDl:mean -nan
attr source rlcThroughputDl
attr title "Throughput at the rlc layer DL, mean"
attr unit Bps
scalar DummyScenario.car[1].cellularNic.nrRlc.um rlcDelayDl:mean -nan
attr source rlcDelayDl
attr title "Delay at the rlc layer DL, mean"
attr unit s
scalar DummyScenario.car[1].cellularNic.nrRlc.um rlcPacketLossDl:mean -nan
attr source rlcPacketLossDl
attr title "rlc Packet Loss, mean"
attr unit ""
scalar DummyScenario.car[1].cellularNic.nrRlc.um rlcPacketLossDl:sum 0
attr source rlcPacketLossDl
attr title "rlc Packet Loss, sum"
attr unit ""
scalar DummyScenario.car[1].cellularNic.nrRlc.um rlcPacketLossUl:mean -nan
attr source rlcPacketLossUl
attr title "rlc Packet Loss, mean"
attr unit ""
scalar DummyScenario.car[1].cellularNic.nrRlc.um rlcPacketLossUl:sum 0
attr source rlcPacketLossUl
attr title "rlc Packet Loss, sum"
attr unit ""
scalar DummyScenario.car[1].cellularNic.nrRlc.um sentPacketToLowerLayer:count 0
attr interpolationmode none
attr source sentPacketToLowerLayer
scalar DummyScenario.car[1].cellularNic.nrRlc.um sentPacketToLowerLayer:sum(packetBytes) 0
attr interpolationmode none
attr source sentPacketToLowerLayer
scalar DummyScenario.car[1].cellularNic.nrRlc.um sentPacketToUpperLayer:count 0
attr interpolationmode none
attr source sentPacketToUpperLayer
scalar DummyScenario.car[1].cellularNic.nrRlc.um sentPacketToUpperLayer:sum(packetBytes) 0
attr interpolationmode none
attr source sentPacketToUpperLayer
scalar DummyScenario.car[1].cellularNic.nrRlc.um receivedPacketFromLowerLayer:count 0
attr interpolationmode none
attr source receivedPacketFromLowerLayer
scalar DummyScenario.car[1].cellularNic.nrRlc.um receivedPacketFromLowerLayer:sum(packetBytes) 0
attr interpolationmode none
attr source receivedPacketFromLowerLayer
scalar DummyScenario.car[1].cellularNic.nrRlc.um receivedPacketFromUpperLayer:count 0
attr interpolationmode none
attr source receivedPacketFromUpperLayer
scalar DummyScenario.car[1].cellularNic.nrRlc.um receivedPacketFromUpperLayer:sum(packetBytes) 0
attr interpolationmode none
attr source receivedPacketFromUpperLayer
par DummyScenario.car[1].cellularNic.nrRlc.am typename "\"simu5g.stack.rlc.LteRlcAm\""
scalar DummyScenario.car[1].cellularNic.nrRlc.am rlcPduPacketLossDl:mean -nan
attr source rlcPduPacketLossDl
attr title "rlc Packet Loss, mean"
attr unit ""
scalar DummyScenario.car[1].cellularNic.nrRlc.am rlcPduPacketLossUl:mean -nan
attr source rlcPduPacketLossUl
attr title "rlc Packet Loss, mean"
attr unit ""
scalar DummyScenario.car[1].cellularNic.nrRlc.am rlcPduThroughputUl:mean -nan
attr source rlcPduThroughputUl
attr title "Throughput at the rlc layer UL, mean"
attr unit Bps
scalar DummyScenario.car[1].cellularNic.nrRlc.am rlcPduDelayUl:mean -nan
attr source rlcPduDelayUl
attr title "Delay at the rlc layer UL, mean"
attr unit s
scalar DummyScenario.car[1].cellularNic.nrRlc.am rlcPduThroughputDl:mean -nan
attr source rlcPduThroughputDl
attr title "Throughput at the rlc layer DL, mean"
attr unit Bps
scalar DummyScenario.car[1].cellularNic.nrRlc.am rlcPduDelayDl:mean -nan
attr source rlcPduDelayDl
attr title "Delay at the rlc layer UL, mean"
attr unit s
scalar DummyScenario.car[1].cellularNic.nrRlc.am rlcCellPacketLossUl:mean -nan
attr source rlcCellPacketLossUl
attr title "rlc Cell Packet Loss, mean"
attr unit ""
scalar DummyScenario.car[1].cellularNic.nrRlc.am rlcCellPacketLossDl:mean -nan
attr source rlcCellPacketLossDl
attr title "rlc Cell Packet Loss, mean"
attr unit ""
scalar DummyScenario.car[1].cellularNic.nrRlc.am rlcCellThroughputDl:mean -nan
attr source rlcCellThroughputDl
attr title "Cell Throughput at the rlc layer DL, mean"
attr unit Bps
scalar DummyScenario.car[1].cellularNic.nrRlc.am rlcCellThroughputUl:mean -nan
attr source rlcCellThroughputUl
attr title "Cell Throughput at the rlc layer UL, mean"
attr unit Bps
scalar DummyScenario.car[1].cellularNic.nrRlc.am rlcPacketLossTotal:mean -nan
attr source rlcPacketLossTotal
attr title "rlc Packet Loss, mean"
attr unit ""
scalar DummyScenario.car[1].cellularNic.nrRlc.am rlcThroughputUl:mean -nan
attr source rlcThroughputUl
attr title "Throughput at the rlc layer UL, mean"
attr unit Bps
scalar DummyScenario.car[1].cellularNic.nrRlc.am rlcDelayUl:mean -nan
attr source rlcDelayUl
attr title "Delay at the rlc layer UL, mean"
attr unit s
scalar DummyScenario.car[1].cellularNic.nrRlc.am rlcThroughputDl:mean -nan
attr source rlcThroughputDl
attr title "Throughput at the rlc layer DL, mean"
attr unit Bps
scalar DummyScenario.car[1].cellularNic.nrRlc.am rlcDelayDl:mean -nan
attr source rlcDelayDl
attr title "Delay at the rlc layer UL, mean"
attr unit s
scalar DummyScenario.car[1].cellularNic.nrRlc.am rlcPacketLossDl:mean -nan
attr source rlcPacketLossDl
attr title "rlc Packet Loss, mean"
attr unit ""
scalar DummyScenario.car[1].cellularNic.nrRlc.am rlcPacketLossUl:mean -nan
attr source rlcPacketLossUl
attr title "rlc Packet Loss, mean"
attr unit ""
par DummyScenario.car[1].cellularNic.nrRlc.mux typename "\"simu5g.stack.rlc.LteRlcMux\""
par DummyScenario.car[1].cellularNic.nrRlc typename "\"simu5g.stack.rlc.LteRlc\""
par DummyScenario.car[1].cellularNic.nrRlc LteRlcUmType "\"LteRlcUm\""
par DummyScenario.car[1].cellularNic.nrRlc d2dCapable true
par DummyScenario.car[1].cellularNic.nrRlc umType "\"LteRlcUmD2D\""
par DummyScenario.car[1].cellularNic.nrMac typename "\"simu5g.stack.mac.NRMacUe\""
par DummyScenario.car[1].cellularNic.nrMac interfaceTableModule "\"DummyScenario.car[1].interfaceTable\""
par DummyScenario.car[1].cellularNic.nrMac queueSize 2097152B
attr unit B
par DummyScenario.car[1].cellularNic.nrMac muMimo true
par DummyScenario.car[1].cellularNic.nrMac harqProcesses 8
par DummyScenario.car[1].cellularNic.nrMac maxHarqRtx 3
par DummyScenario.car[1].cellularNic.nrMac harqFbEvaluationTimer 4
par DummyScenario.car[1].cellularNic.nrMac statDisplay false
par DummyScenario.car[1].cellularNic.nrMac usePreconfiguredTxParams false
par DummyScenario.car[1].cellularNic.nrMac d2dCqi 7
scalar DummyScenario.car[1].cellularNic.nrMac rcvdD2DModeSwitchNotification:count 0
attr source rcvdD2DModeSwitchNotification
attr title "Reception of mode switch notification (tx side), count"
attr unit ""
scalar DummyScenario.car[1].cellularNic.nrMac macThroughputD2D:mean -nan
attr source macThroughputD2D
attr title "Throughput at the MAC layer D2D, mean"
attr unit Bps
scalar DummyScenario.car[1].cellularNic.nrMac macDelayD2D:mean -nan
attr source macDelayD2D
attr title "Delay at the MAC layer D2D, mean"
attr unit s
scalar DummyScenario.car[1].cellularNic.nrMac macPacketLossD2D:mean -nan
attr source macPacketLossD2D
attr title "Mac Packet Loss D2D, mean"
attr unit ""
scalar DummyScenario.car[1].cellularNic.nrMac harqErrorRateD2D:mean -nan
attr source harqErrorRateD2D
attr title "Harq Error Rate D2D, mean"
attr unit ""
scalar DummyScenario.car[1].cellularNic.nrMac harqErrorRate_4th_D2D:mean -nan
attr source harqErrorRate_4th_D2D
attr title "Harq Error Rate D2D 4th Tx, mean"
attr unit ""
scalar DummyScenario.car[1].cellularNic.nrMac harqErrorRate_3rd_D2D:mean -nan
attr source harqErrorRate_3rd_D2D
attr title "Harq Error Rate D2D 3rd Tx, mean"
attr unit ""
scalar DummyScenario.car[1].cellularNic.nrMac harqErrorRate_2nd_D2D:mean -nan
attr source harqErrorRate_2nd_D2D
attr title "Harq Error Rate D2D 2nd Tx, mean"
attr unit ""
scalar DummyScenario.car[1].cellularNic.nrMac harqErrorRate_1st_D2D:mean -nan
attr source harqErrorRate_1st_D2D
attr title "Harq Error Rate D2D 1st Tx, mean"
attr unit ""
scalar DummyScenario.car[1].cellularNic.nrMac measuredItbs:mean -nan
attr source measuredItbs
attr title "TBS index, mean"
attr unit ""
scalar DummyScenario.car[1].cellularNic.nrMac harqErrorRate_4th_Dl:mean -nan
attr source harqErrorRate_4th_Dl
attr title "Harq Error Rate Dl, mean"
attr unit ""
scalar DummyScenario.car[1].cellularNic.nrMac harqErrorRate_4th_Ul:mean -nan
attr source harqErrorRate_4th_Ul
attr title "Harq Error Rate Ul, mean"
attr unit ""
scalar DummyScenario.car[1].cellularNic.nrMac harqErrorRate_3rd_Dl:mean -nan
attr source harqErrorRate_3rd_Dl
attr title "Harq Error Rate Dl, mean"
attr unit ""
scalar DummyScenario.car[1].cellularNic.nrMac harqErrorRate_3rd_Ul:mean -nan
attr source harqErrorRate_3rd_Ul
attr title "Harq Error Rate Ul, mean"
attr unit ""
scalar DummyScenario.car[1].cellularNic.nrMac harqErrorRate_2nd_Dl:mean -nan
attr source harqErrorRate_2nd_Dl
attr title "Harq Error Rate Dl, mean"
attr unit ""
scalar DummyScenario.car[1].cellularNic.nrMac harqErrorRate_2nd_Ul:mean -nan
attr source harqErrorRate_2nd_Ul
attr title "Harq Error Rate Ul, mean"
attr unit ""
scalar DummyScenario.car[1].cellularNic.nrMac harqErrorRate_1st_Dl:mean -nan
attr source harqErrorRate_1st_Dl
attr title "Harq Error Rate Dl, mean"
attr unit ""
scalar DummyScenario.car[1].cellularNic.nrMac harqErrorRate_1st_Ul:mean -nan
attr source harqErrorRate_1st_Ul
attr title "Harq Error Rate Ul, mean"
attr unit ""
scalar DummyScenario.car[1].cellularNic.nrMac harqTxAttemptsUl:mean -nan
attr source harqTxAttemptsUl
attr title "Harq Tx Attempts Ul, mean"
attr unit ""
scalar DummyScenario.car[1].cellularNic.nrMac harqTxAttemptsDl:mean -nan
attr source harqTxAttemptsDl
attr title "Harq Tx Attempts Dl, mean"
attr unit ""
scalar DummyScenario.car[1].cellularNic.nrMac harqErrorRateDl:mean -nan
attr source harqErrorRateDl
attr title "Harq Error Rate Dl, mean"
attr unit ""
scalar DummyScenario.car[1].cellularNic.nrMac harqErrorRateUl:mean -nan
attr source harqErrorRateUl
attr title "Harq Error Rate Ul, mean"
attr unit ""
scalar DummyScenario.car[1].cellularNic.nrMac macBufferOverFlowD2D:mean -nan
attr source macBufferOverFlowD2D
attr title "Mac buffer overflow as function of time, mean"
attr unit Byte/s
scalar DummyScenario.car[1].cellularNic.nrMac macBufferOverFlowUl:mean -nan
attr source macBufferOverFlowUl
attr title "Mac buffer overflow as function of time, mean"
attr unit Byte/s
scalar DummyScenario.car[1].cellularNic.nrMac macBufferOverFlowDl:mean -nan
attr source macBufferOverFlowDl
attr title "Mac buffer overflow as function of time, mean"
attr unit Byte/s
scalar DummyScenario.car[1].cellularNic.nrMac macPacketLossDl:mean -nan
attr source macPacketLossDl
attr title "Mac Packet Loss Dl, mean"
attr unit ""
scalar DummyScenario.car[1].cellularNic.nrMac macPacketLossUl:mean -nan
attr source macPacketLossUl
attr title "Mac Packet Loss Ul, mean"
attr unit ""
scalar DummyScenario.car[1].cellularNic.nrMac macCellPacketLossUl:mean -nan
attr source macCellPacketLossUl
attr title "Mac Cell Packet Loss Ul, mean"
attr unit ""
scalar DummyScenario.car[1].cellularNic.nrMac macCellPacketLossDl:mean -nan
attr source macCellPacketLossDl
attr title "Mac Cell Packet Loss Dl, mean"
attr unit ""
scalar DummyScenario.car[1].cellularNic.nrMac macCellThroughputDl:mean -nan
attr source macCellThroughputDl
attr title "Cell Throughput at the MAC layer DL, mean"
attr unit Bps
scalar DummyScenario.car[1].cellularNic.nrMac macCellThroughputUl:mean -nan
attr source macCellThroughputUl
attr title "Cell Throughput at the MAC layer UL, mean"
attr unit Bps
scalar DummyScenario.car[1].cellularNic.nrMac macThroughputUl:mean -nan
attr source macThroughputUl
attr title "Throughput at the MAC layer UL, mean"
attr unit Bps
scalar DummyScenario.car[1].cellularNic.nrMac macDelayUl:mean -nan
attr source macDelayUl
attr title "Delay at the MAC layer UL, mean"
attr unit s
scalar DummyScenario.car[1].cellularNic.nrMac macThroughputDl:mean -nan
attr source macThroughputDl
attr title "Throughput at the MAC layer DL, mean"
attr unit Bps
scalar DummyScenario.car[1].cellularNic.nrMac macDelayDl:mean -nan
attr source macDelayDl
attr title "Delay at the MAC layer UL, mean"
attr unit s
scalar DummyScenario.car[1].cellularNic.nrMac sentPacketToLowerLayer:count 0
attr interpolationmode none
attr source sentPacketToLowerLayer
scalar DummyScenario.car[1].cellularNic.nrMac sentPacketToLowerLayer:sum(packetBytes) 0
attr interpolationmode none
attr source sentPacketToLowerLayer
scalar DummyScenario.car[1].cellularNic.nrMac sentPacketToUpperLayer:count 0
attr interpolationmode none
attr source sentPacketToUpperLayer
scalar DummyScenario.car[1].cellularNic.nrMac sentPacketToUpperLayer:sum(packetBytes) 0
attr interpolationmode none
attr source sentPacketToUpperLayer
scalar DummyScenario.car[1].cellularNic.nrMac receivedPacketFromLowerLayer:count 0
attr interpolationmode none
attr source receivedPacketFromLowerLayer
scalar DummyScenario.car[1].cellularNic.nrMac receivedPacketFromLowerLayer:sum(packetBytes) 0
attr interpolationmode none
attr source receivedPacketFromLowerLayer
scalar DummyScenario.car[1].cellularNic.nrMac receivedPacketFromUpperLayer:count 0
attr interpolationmode none
attr source receivedPacketFromUpperLayer
scalar DummyScenario.car[1].cellularNic.nrMac receivedPacketFromUpperLayer:sum(packetBytes) 0
attr interpolationmode none
attr source receivedPacketFromUpperLayer
par DummyScenario.car[1].cellularNic.nrPhy typename "\"simu5g.stack.phy.NRPhyUe\""
par DummyScenario.car[1].cellularNic.nrPhy ueTxPower 26
par DummyScenario.car[1].cellularNic.nrPhy eNodeBTxPower 46
par DummyScenario.car[1].cellularNic.nrPhy microTxPower 30
par DummyScenario.car[1].cellularNic.nrPhy txDirection "\"OMNI\""
par DummyScenario.car[1].cellularNic.nrPhy txAngle 0
par DummyScenario.car[1].cellularNic.nrPhy dynamicCellAssociation true
par DummyScenario.car[1].cellularNic.nrPhy enableHandover true
par DummyScenario.car[1].cellularNic.nrPhy handoverLatency 0.05s
attr unit s
par DummyScenario.car[1].cellularNic.nrPhy enableMulticastD2DRangeCheck false
par DummyScenario.car[1].cellularNic.nrPhy multicastD2DRange 1000m
attr unit m
par DummyScenario.car[1].cellularNic.nrPhy minRssiDefault true
par DummyScenario.car[1].cellularNic.nrPhy minRssi -99dB
attr unit dB
par DummyScenario.car[1].cellularNic.nrPhy d2dTxPower 26
par DummyScenario.car[1].cellularNic.nrPhy d2dMulticastCaptureEffect true
par DummyScenario.car[1].cellularNic.nrPhy d2dMulticastCaptureEffectFactor "\"RSRP\""
scalar DummyScenario.car[1].cellularNic.nrPhy averageCqiD2D:mean -nan
attr source averageCqiD2D
attr title "Average Cqi reported in D2D, mean"
attr unit cqi
scalar DummyScenario.car[1].cellularNic.nrPhy averageCqiUl:mean -nan
attr source averageCqiUl
attr title "Average Cqi reported in UL, mean"
attr unit cqi
scalar DummyScenario.car[1].cellularNic.nrPhy averageCqiUl:count 0
attr source averageCqiUl
attr title "Average Cqi reported in UL, count"
attr unit cqi
scalar DummyScenario.car[1].cellularNic.nrPhy averageCqiDl:mean -nan
attr source averageCqiDl
attr title "Average Cqi reported in DL, mean"
attr unit cqi
scalar DummyScenario.car[1].cellularNic.nrPhy averageCqiDl:count 0
attr source averageCqiDl
attr title "Average Cqi reported in DL, count"
attr unit cqi
par DummyScenario.car[1].cellularNic.nrChannelModel[0] typename "\"simu5g.stack.phy.ChannelModel.NRChannelModel\""
par DummyScenario.car[1].cellularNic.nrChannelModel[0] componentCarrierIndex 0
par DummyScenario.car[1].cellularNic.nrChannelModel[0] shadowing true
par DummyScenario.car[1].cellularNic.nrChannelModel[0] scenario "\"URBAN_MACROCELL\""
par DummyScenario.car[1].cellularNic.nrChannelModel[0] nodeb_height 25
par DummyScenario.car[1].cellularNic.nrChannelModel[0] building_height 20
par DummyScenario.car[1].cellularNic.nrChannelModel[0] inside_building false
par DummyScenario.car[1].cellularNic.nrChannelModel[0] street_wide 20
par DummyScenario.car[1].cellularNic.nrChannelModel[0] ue_height 1.5
par DummyScenario.car[1].cellularNic.nrChannelModel[0] tolerateMaxDistViolation false
par DummyScenario.car[1].cellularNic.nrChannelModel[0] useTorus false
par DummyScenario.car[1].cellularNic.nrChannelModel[0] correlation_distance 50
par DummyScenario.car[1].cellularNic.nrChannelModel[0] targetBler 0.01
par DummyScenario.car[1].cellularNic.nrChannelModel[0] harqReduction 0.2
par DummyScenario.car[1].cellularNic.nrChannelModel[0] lambdaMinTh 0.02
par DummyScenario.car[1].cellularNic.nrChannelModel[0] lambdaMaxTh 0.2
par DummyScenario.car[1].cellularNic.nrChannelModel[0] lambdaRatioTh 20
par DummyScenario.car[1].cellularNic.nrChannelModel[0] antennaGainUe 0
par DummyScenario.car[1].cellularNic.nrChannelModel[0] antennGainEnB 18
par DummyScenario.car[1].cellularNic.nrChannelModel[0] antennGainMicro 5
par DummyScenario.car[1].cellularNic.nrChannelModel[0] thermalNoise -104.5
par DummyScenario.car[1].cellularNic.nrChannelModel[0] ue_noise_figure 7
par DummyScenario.car[1].cellularNic.nrChannelModel[0] bs_noise_figure 5
par DummyScenario.car[1].cellularNic.nrChannelModel[0] cable_loss 2
par DummyScenario.car[1].cellularNic.nrChannelModel[0] dynamic_los false
par DummyScenario.car[1].cellularNic.nrChannelModel[0] fixed_los false
par DummyScenario.car[1].cellularNic.nrChannelModel[0] fading true
par DummyScenario.car[1].cellularNic.nrChannelModel[0] fading_type "\"JAKES\""
par DummyScenario.car[1].cellularNic.nrChannelModel[0] fading_paths 6
par DummyScenario.car[1].cellularNic.nrChannelModel[0] delay_rms 3.63e-07
par DummyScenario.car[1].cellularNic.nrChannelModel[0] bgCell_interference true
par DummyScenario.car[1].cellularNic.nrChannelModel[0] extCell_interference true
par DummyScenario.car[1].cellularNic.nrChannelModel[0] downlink_interference false
par DummyScenario.car[1].cellularNic.nrChannelModel[0] uplink_interference false
par DummyScenario.car[1].cellularNic.nrChannelModel[0] d2d_interference true
par DummyScenario.car[1].cellularNic.nrChannelModel[0] enable_extCell_los true
par DummyScenario.car[1].cellularNic.nrChannelModel[0] useRsrqFromLog false
par DummyScenario.car[1].cellularNic.nrChannelModel[0] rsrqShift 22
par DummyScenario.car[1].cellularNic.nrChannelModel[0] rsrqScale 1
par DummyScenario.car[1].cellularNic.nrChannelModel[0] collectSinrStatistics true
scalar DummyScenario.car[1].cellularNic.nrChannelModel[0] distance:mean -nan
attr source distance
attr title "distance between UE and serving eNB, mean"
attr unit meters
scalar DummyScenario.car[1].cellularNic.nrChannelModel[0] measuredSinrUl:mean 12.29353700306
attr source measuredSinrUl
attr title "SINR measured at feedback computation, UL, mean"
attr unit dB
scalar DummyScenario.car[1].cellularNic.nrChannelModel[0] measuredSinrDl:mean 28.725797501178
attr source measuredSinrDl
attr title "SINR measured at feedback computation, DL, mean"
attr unit dB
scalar DummyScenario.car[1].cellularNic.nrChannelModel[0] rcvdSinrUl:mean -nan
attr source rcvdSinrUl
attr title "SINR measured at packet reception, UL, mean"
attr unit dB
scalar DummyScenario.car[1].cellularNic.nrChannelModel[0] rcvdSinrDl:mean -nan
attr source rcvdSinrDl
attr title "SINR measured at packet reception, DL, mean"
attr unit dB
par DummyScenario.car[1].cellularNic.nrDlFbGen typename "\"simu5g.stack.phy.feedback.LteDlFeedbackGenerator\""
par DummyScenario.car[1].cellularNic.nrDlFbGen feedbackType "\"ALLBANDS\""
par DummyScenario.car[1].cellularNic.nrDlFbGen rbAllocationType "\"localized\""
par DummyScenario.car[1].cellularNic.nrDlFbGen fbPeriod 6
par DummyScenario.car[1].cellularNic.nrDlFbGen fbDelay 1
par DummyScenario.car[1].cellularNic.nrDlFbGen usePeriodic true
par DummyScenario.car[1].cellularNic.nrDlFbGen initialTxMode "\"SINGLE_ANTENNA_PORT0\""
par DummyScenario.car[1].cellularNic.nrDlFbGen feedbackGeneratorType "\"IDEAL\""
par DummyScenario.car[1].cellularNic typename "\"simu5g.stack.NRNicUe\""
par DummyScenario.car[1].cellularNic displayStringTextFormat "\"%a (%i)\\n%m\""
par DummyScenario.car[1].cellularNic recordPcap false
par DummyScenario.car[1].cellularNic numPcapRecorders 0
par DummyScenario.car[1].cellularNic interfaceTableModule "\"DummyScenario.car[1].interfaceTable\""
par DummyScenario.car[1].cellularNic routingTableModule "\"DummyScenario.car[1].ipv4.routingTable\""
par DummyScenario.car[1].cellularNic LtePdcpRrcType "\"NRPdcpRrcUe\""
par DummyScenario.car[1].cellularNic LteMacType "\"LteMacUeD2D\""
par DummyScenario.car[1].cellularNic PacketFlowManagerType "\"PacketFlowManagerUe\""
par DummyScenario.car[1].cellularNic hasRNISupport false
par DummyScenario.car[1].cellularNic LtePhyType "\"NRPhyUe\""
par DummyScenario.car[1].cellularNic nodeType "\"UE\""
par DummyScenario.car[1].cellularNic processingDelayIn 0s
attr unit s
par DummyScenario.car[1].cellularNic processingDelayOut 0s
attr unit s
par DummyScenario.car[1].cellularNic LteChannelModelType "\"LteRealisticChannelModel\""
par DummyScenario.car[1].cellularNic d2dCapable true
par DummyScenario.car[1].cellularNic dualConnectivityEnabled false
par DummyScenario.car[1].cellularNic numCarriers 1
par DummyScenario.car[1].cellularNic address "\"0A-AA-00-00-00-07\""
par DummyScenario.car[1].cellularNic d2dInitialMode false
par DummyScenario.car[1].cellularNic NRMacType "\"NRMacUe\""
par DummyScenario.car[1].cellularNic NRPhyType "\"NRPhyUe\""
par DummyScenario.car[1].cellularNic NRChannelModelType "\"NRChannelModel\""
par DummyScenario.car[1].cellularNic NRPacketFlowManagerType "\"NRPacketFlowManagerUe\""
par DummyScenario.car[1].cellularNic numNRCarriers 1
par DummyScenario.car[1].at typename "\"inet.common.MessageDispatcher\""
par DummyScenario.car[1].at displayStringTextFormat "\"processed %p pk (%l)\""
par DummyScenario.car[1].tn typename "\"inet.common.MessageDispatcher\""
par DummyScenario.car[1].tn displayStringTextFormat "\"processed %p pk (%l)\""
par DummyScenario.car[1].nl typename "\"inet.common.MessageDispatcher\""
par DummyScenario.car[1].nl displayStringTextFormat "\"processed %p pk (%l)\""
par DummyScenario.car[1].configurator typename "\"inet.networklayer.configurator.ipv4.HostAutoConfigurator\""
par DummyScenario.car[1].configurator interfaceTableModule "\"DummyScenario.car[1].interfaceTable\""
par DummyScenario.car[1].configurator interfaces "\"wlan\""
par DummyScenario.car[1].configurator addressBase "\"10.0.0.0\""
par DummyScenario.car[1].configurator netmask "\"255.0.0.0\""
par DummyScenario.car[1].configurator mcastGroups "\"\""
par DummyScenario.car[1] typename "\"simu5g.nodes.cars.NRCar\""
par DummyScenario.car[1] mobilityType "\"VeinsInetMobility\""
par DummyScenario.car[1] numApps 0
par DummyScenario.car[1] hasUdp true
par DummyScenario.car[1] hasTcp true
par DummyScenario.car[1] hasSctp false
par DummyScenario.car[1] nodeType "\"UE\""
par DummyScenario.car[1] masterId 0
par DummyScenario.car[1] macNodeId 1026
par DummyScenario.car[1] macCellId 0
par DummyScenario.car[1] nicType "\"NRNicUe\""
par DummyScenario.car[1] hasIpv4 true
par DummyScenario.car[1] hasIpv6 false
par DummyScenario.car[1] numEthInterfaces 0
par DummyScenario.car[1] extHostAddress "\"\""
par DummyScenario.car[1] numLoInterfaces 1
par DummyScenario.car[1] numPcapRecorders 0
par DummyScenario.car[1] hasRNISupport false
par DummyScenario.car[1] nrMasterId 1
par DummyScenario.car[1] nrMacNodeId 2050
par DummyScenario.car[1] nrMacCellId 1
par DummyScenario.car[2].interfaceTable typename "\"inet.networklayer.common.InterfaceTable\""
par DummyScenario.car[2].interfaceTable displayAddresses false
par DummyScenario.car[2].mobility typename "\"org.car2x.veins.subprojects.veins_inet.VeinsInetMobility\""
par DummyScenario.car[2].mobility subjectModule "\"^\""
par DummyScenario.car[2].mobility coordinateSystemModule "\"\""
par DummyScenario.car[2].mobility displayStringTextFormat "\"p: %p\\nv: %v\""
par DummyScenario.car[2].mobility updateDisplayString true
par DummyScenario.car[2].mobility constraintAreaMinX "-inf m"
attr unit m
par DummyScenario.car[2].mobility constraintAreaMinY "-inf m"
attr unit m
par DummyScenario.car[2].mobility constraintAreaMinZ "-inf m"
attr unit m
par DummyScenario.car[2].mobility constraintAreaMaxX "inf m"
attr unit m
par DummyScenario.car[2].mobility constraintAreaMaxY "inf m"
attr unit m
par DummyScenario.car[2].mobility constraintAreaMaxZ "inf m"
attr unit m
par DummyScenario.car[2].mobility initFromDisplayString true
par DummyScenario.car[2].udp typename "\"inet.transportlayer.udp.Udp\""
par DummyScenario.car[2].udp interfaceTableModule "\"DummyScenario.car[2].interfaceTable\""
par DummyScenario.car[2].udp icmpModule "\"^.ipv4.icmp\""
par DummyScenario.car[2].udp icmpv6Module "\"^.ipv6.icmpv6\""
par DummyScenario.car[2].udp crcMode "\"declared\""
attr enum disabled,declared,computed
scalar DummyScenario.car[2].udp packetReceived:count 0
attr interpolationmode none
attr source packetReceived
attr title "packets received, count"
scalar DummyScenario.car[2].udp packetReceived:sum(packetBytes) 0
attr interpolationmode none
attr source packetReceived
attr title "packets received, sum(packetBytes)"
scalar DummyScenario.car[2].udp packetSent:count 0
attr interpolationmode none
attr source packetSent
attr title "packets sent, count"
scalar DummyScenario.car[2].udp packetSent:sum(packetBytes) 0
attr interpolationmode none
attr source packetSent
attr title "packets sent, sum(packetBytes)"
scalar DummyScenario.car[2].udp passedUpPk:count 0
attr interpolationmode none
attr source packetSentToUpper
attr title "packets passed up, count"
scalar DummyScenario.car[2].udp droppedPkWrongPort:count 0
attr interpolationmode none
attr source packetDropReasonIsNoPortFound(packetDropped)
attr title "packets dropped (wrong port), count"
scalar DummyScenario.car[2].udp droppedPkBadChecksum:count 0
attr interpolationmode none
attr source packetDropReasonIsIncorrectlyReceived(packetDropped)
attr title "packets dropped (checksum error), count"
par DummyScenario.car[2].tcp typename "\"inet.transportlayer.tcp.Tcp\""
par DummyScenario.car[2].tcp crcMode "\"declared\""
attr enum declared,computed
par DummyScenario.car[2].tcp advertisedWindow 7504
par DummyScenario.car[2].tcp delayedAcksEnabled false
par DummyScenario.car[2].tcp nagleEnabled true
par DummyScenario.car[2].tcp limitedTransmitEnabled false
par DummyScenario.car[2].tcp increasedIWEnabled false
par DummyScenario.car[2].tcp sackSupport false
par DummyScenario.car[2].tcp windowScalingSupport false
par DummyScenario.car[2].tcp windowScalingFactor -1
par DummyScenario.car[2].tcp timestampSupport false
par DummyScenario.car[2].tcp mss 536
par DummyScenario.car[2].tcp msl 120s
attr unit s
par DummyScenario.car[2].tcp tcpAlgorithmClass "\"TcpReno\""
attr enum TcpVegas,TcpWestwood,TcpNewReno,TcpReno,TcpTahoe,TcpNoCongestionControl
par DummyScenario.car[2].tcp useDataNotification false
par DummyScenario.car[2].tcp dupthresh 3
par DummyScenario.car[2].tcp initialSsthresh 4294967295
par DummyScenario.car[2].tcp stopOperationExtraTime 0s
attr unit s
par DummyScenario.car[2].tcp stopOperationTimeout 2s
attr unit s
par DummyScenario.car[2].tcp ecnWillingness false
par DummyScenario.car[2].tcp dctcpGamma 0.0625
par DummyScenario.car[2].ipv4.transportIn.channel typename "\"ned.IdealChannel\""
par DummyScenario.car[2].ipv4.up.out[0].channel typename "\"ned.IdealChannel\""
par DummyScenario.car[2].ipv4.lp.out[2].channel typename "\"ned.IdealChannel\""
par DummyScenario.car[2].ipv4.ifIn.channel typename "\"ned.IdealChannel\""
par DummyScenario.car[2].ipv4.configurator typename "\"inet.networklayer.configurator.ipv4.HostAutoConfigurator\""
par DummyScenario.car[2].ipv4.configurator interfaceTableModule "\"DummyScenario.car[2].interfaceTable\""
par DummyScenario.car[2].ipv4.configurator interfaces "\"wlan\""
par DummyScenario.car[2].ipv4.configurator addressBase "\"10.0.0.0\""
par DummyScenario.car[2].ipv4.configurator netmask "\"255.0.0.0\""
par DummyScenario.car[2].ipv4.configurator mcastGroups "\"\""
par DummyScenario.car[2].ipv4.routingTable typename "\"inet.networklayer.ipv4.Ipv4RoutingTable\""
par DummyScenario.car[2].ipv4.routingTable interfaceTableModule "\"DummyScenario.car[2].interfaceTable\""
par DummyScenario.car[2].ipv4.routingTable routerId "\"auto\""
par DummyScenario.car[2].ipv4.routingTable netmaskRoutes "\"*\""
par DummyScenario.car[2].ipv4.routingTable forwarding false
par DummyScenario.car[2].ipv4.routingTable multicastForwarding false
par DummyScenario.car[2].ipv4.routingTable useAdminDist false
par DummyScenario.car[2].ipv4.routingTable routingFile "\"\""
par DummyScenario.car[2].ipv4.natTable typename "\"inet.networklayer.ipv4.Ipv4NatTable\""
par DummyScenario.car[2].ipv4.natTable networkProtocolModule "\"^.ip\""
par DummyScenario.car[2].ipv4.natTable config "<config/> at content:1"
par DummyScenario.car[2].ipv4.up typename "\"inet.common.MessageDispatcher\""
par DummyScenario.car[2].ipv4.up displayStringTextFormat "\"processed %p pk (%l)\""
par DummyScenario.car[2].ipv4.igmp typename "\"inet.networklayer.ipv4.Igmpv2\""
par DummyScenario.car[2].ipv4.igmp interfaceTableModule "\"DummyScenario.car[2].interfaceTable\""
par DummyScenario.car[2].ipv4.igmp routingTableModule "\"DummyScenario.car[2].ipv4.routingTable\""
par DummyScenario.car[2].ipv4.igmp crcMode "\"declared\""
attr enum declared,computed
par DummyScenario.car[2].ipv4.igmp enabled true
par DummyScenario.car[2].ipv4.igmp robustnessVariable 2
par DummyScenario.car[2].ipv4.igmp queryInterval 125s
attr unit s
par DummyScenario.car[2].ipv4.igmp queryResponseInterval 10s
attr unit s
par DummyScenario.car[2].ipv4.igmp groupMembershipInterval 260s
attr unit s
par DummyScenario.car[2].ipv4.igmp otherQuerierPresentInterval 255s
attr unit s
par DummyScenario.car[2].ipv4.igmp startupQueryInterval 31.25s
attr unit s
par DummyScenario.car[2].ipv4.igmp startupQueryCount 2
par DummyScenario.car[2].ipv4.igmp lastMemberQueryInterval 1s
attr unit s
par DummyScenario.car[2].ipv4.igmp lastMemberQueryCount 2
par DummyScenario.car[2].ipv4.igmp unsolicitedReportInterval 10s
attr unit s
par DummyScenario.car[2].ipv4.icmp typename "\"inet.networklayer.ipv4.Icmp\""
par DummyScenario.car[2].ipv4.icmp interfaceTableModule "\"DummyScenario.car[2].interfaceTable\""
par DummyScenario.car[2].ipv4.icmp routingTableModule "\"DummyScenario.car[2].ipv4.routingTable\""
par DummyScenario.car[2].ipv4.icmp crcMode "\"declared\""
attr enum declared,computed
par DummyScenario.car[2].ipv4.icmp quoteLength 8B
attr unit B
[...]
attr unit s
scalar DummyScenario.car[9].cellularNic.nrRlc.am rlcCellPacketLossUl:mean -nan
attr source rlcCellPacketLossUl
attr title "rlc Cell Packet Loss, mean"
attr unit ""
scalar DummyScenario.car[9].cellularNic.nrRlc.am rlcCellPacketLossDl:mean -nan
attr source rlcCellPacketLossDl
attr title "rlc Cell Packet Loss, mean"
attr unit ""
scalar DummyScenario.car[9].cellularNic.nrRlc.am rlcCellThroughputDl:mean -nan
attr source rlcCellThroughputDl
attr title "Cell Throughput at the rlc layer DL, mean"
attr unit Bps
scalar DummyScenario.car[9].cellularNic.nrRlc.am rlcCellThroughputUl:mean -nan
attr source rlcCellThroughputUl
attr title "Cell Throughput at the rlc layer UL, mean"
attr unit Bps
scalar DummyScenario.car[9].cellularNic.nrRlc.am rlcPacketLossTotal:mean -nan
attr source rlcPacketLossTotal
attr title "rlc Packet Loss, mean"
attr unit ""
scalar DummyScenario.car[9].cellularNic.nrRlc.am rlcThroughputUl:mean -nan
attr source rlcThroughputUl
attr title "Throughput at the rlc layer UL, mean"
attr unit Bps
scalar DummyScenario.car[9].cellularNic.nrRlc.am rlcDelayUl:mean -nan
attr source rlcDelayUl
attr title "Delay at the rlc layer UL, mean"
attr unit s
scalar DummyScenario.car[9].cellularNic.nrRlc.am rlcThroughputDl:mean -nan
attr source rlcThroughputDl
attr title "Throughput at the rlc layer DL, mean"
attr unit Bps
scalar DummyScenario.car[9].cellularNic.nrRlc.am rlcDelayDl:mean -nan
attr source rlcDelayDl
attr title "Delay at the rlc layer UL, mean"
attr unit s
scalar DummyScenario.car[9].cellularNic.nrRlc.am rlcPacketLossDl:mean -nan
attr source rlcPacketLossDl
attr title "rlc Packet Loss, mean"
attr unit ""
scalar DummyScenario.car[9].cellularNic.nrRlc.am rlcPacketLossUl:mean -nan
attr source rlcPacketLossUl
attr title "rlc Packet Loss, mean"
attr unit ""
par DummyScenario.car[9].cellularNic.nrRlc.mux typename "\"simu5g.stack.rlc.LteRlcMux\""
par DummyScenario.car[9].cellularNic.nrRlc typename "\"simu5g.stack.rlc.LteRlc\""
par DummyScenario.car[9].cellularNic.nrRlc LteRlcUmType "\"LteRlcUm\""
par DummyScenario.car[9].cellularNic.nrRlc d2dCapable true
par DummyScenario.car[9].cellularNic.nrRlc umType "\"LteRlcUmD2D\""
par DummyScenario.car[9].cellularNic.nrMac typename "\"simu5g.stack.mac.NRMacUe\""
par DummyScenario.car[9].cellularNic.nrMac interfaceTableModule "\"DummyScenario.car[9].interfaceTable\""
par DummyScenario.car[9].cellularNic.nrMac queueSize 2097152B
attr unit B
par DummyScenario.car[9].cellularNic.nrMac muMimo true
par DummyScenario.car[9].cellularNic.nrMac harqProcesses 8
par DummyScenario.car[9].cellularNic.nrMac maxHarqRtx 3
par DummyScenario.car[9].cellularNic.nrMac harqFbEvaluationTimer 4
par DummyScenario.car[9].cellularNic.nrMac statDisplay false
par DummyScenario.car[9].cellularNic.nrMac usePreconfiguredTxParams false
par DummyScenario.car[9].cellularNic.nrMac d2dCqi 7
scalar DummyScenario.car[9].cellularNic.nrMac rcvdD2DModeSwitchNotification:count 0
attr source rcvdD2DModeSwitchNotification
attr title "Reception of mode switch notification (tx side), count"
attr unit ""
scalar DummyScenario.car[9].cellularNic.nrMac macThroughputD2D:mean -nan
attr source macThroughputD2D
attr title "Throughput at the MAC layer D2D, mean"
attr unit Bps
scalar DummyScenario.car[9].cellularNic.nrMac macDelayD2D:mean -nan
attr source macDelayD2D
attr title "Delay at the MAC layer D2D, mean"
attr unit s
scalar DummyScenario.car[9].cellularNic.nrMac macPacketLossD2D:mean -nan
attr source macPacketLossD2D
attr title "Mac Packet Loss D2D, mean"
attr unit ""
scalar DummyScenario.car[9].cellularNic.nrMac harqErrorRateD2D:mean -nan
attr source harqErrorRateD2D
attr title "Harq Error Rate D2D, mean"
attr unit ""
scalar DummyScenario.car[9].cellularNic.nrMac harqErrorRate_4th_D2D:mean -nan
attr source harqErrorRate_4th_D2D
attr title "Harq Error Rate D2D 4th Tx, mean"
attr unit ""
scalar DummyScenario.car[9].cellularNic.nrMac harqErrorRate_3rd_D2D:mean -nan
attr source harqErrorRate_3rd_D2D
attr title "Harq Error Rate D2D 3rd Tx, mean"
attr unit ""
scalar DummyScenario.car[9].cellularNic.nrMac harqErrorRate_2nd_D2D:mean -nan
attr source harqErrorRate_2nd_D2D
attr title "Harq Error Rate D2D 2nd Tx, mean"
attr unit ""
scalar DummyScenario.car[9].cellularNic.nrMac harqErrorRate_1st_D2D:mean -nan
attr source harqErrorRate_1st_D2D
attr title "Harq Error Rate D2D 1st Tx, mean"
attr unit ""
scalar DummyScenario.car[9].cellularNic.nrMac measuredItbs:mean -nan
attr source measuredItbs
attr title "TBS index, mean"
attr unit ""
scalar DummyScenario.car[9].cellularNic.nrMac harqErrorRate_4th_Dl:mean -nan
attr source harqErrorRate_4th_Dl
attr title "Harq Error Rate Dl, mean"
attr unit ""
scalar DummyScenario.car[9].cellularNic.nrMac harqErrorRate_4th_Ul:mean -nan
attr source harqErrorRate_4th_Ul
attr title "Harq Error Rate Ul, mean"
attr unit ""
scalar DummyScenario.car[9].cellularNic.nrMac harqErrorRate_3rd_Dl:mean -nan
attr source harqErrorRate_3rd_Dl
attr title "Harq Error Rate Dl, mean"
attr unit ""
scalar DummyScenario.car[9].cellularNic.nrMac harqErrorRate_3rd_Ul:mean -nan
attr source harqErrorRate_3rd_Ul
attr title "Harq Error Rate Ul, mean"
attr unit ""
scalar DummyScenario.car[9].cellularNic.nrMac harqErrorRate_2nd_Dl:mean -nan
attr source harqErrorRate_2nd_Dl
attr title "Harq Error Rate Dl, mean"
attr unit ""
scalar DummyScenario.car[9].cellularNic.nrMac harqErrorRate_2nd_Ul:mean -nan
attr source harqErrorRate_2nd_Ul
attr title "Harq Error Rate Ul, mean"
attr unit ""
scalar DummyScenario.car[9].cellularNic.nrMac harqErrorRate_1st_Dl:mean -nan
attr source harqErrorRate_1st_Dl
attr title "Harq Error Rate Dl, mean"
attr unit ""
scalar DummyScenario.car[9].cellularNic.nrMac harqErrorRate_1st_Ul:mean -nan
attr source harqErrorRate_1st_Ul
attr title "Harq Error Rate Ul, mean"
attr unit ""
scalar DummyScenario.car[9].cellularNic.nrMac harqTxAttemptsUl:mean -nan
attr source harqTxAttemptsUl
attr title "Harq Tx Attempts Ul, mean"
attr unit ""
scalar DummyScenario.car[9].cellularNic.nrMac harqTxAttemptsDl:mean -nan
attr source harqTxAttemptsDl
attr title "Harq Tx Attempts Dl, mean"
attr unit ""
scalar DummyScenario.car[9].cellularNic.nrMac harqErrorRateDl:mean -nan
attr source harqErrorRateDl
attr title "Harq Error Rate Dl, mean"
attr unit ""
scalar DummyScenario.car[9].cellularNic.nrMac harqErrorRateUl:mean -nan
attr source harqErrorRateUl
attr title "Harq Error Rate Ul, mean"
attr unit ""
scalar DummyScenario.car[9].cellularNic.nrMac macBufferOverFlowD2D:mean -nan
attr source macBufferOverFlowD2D
attr title "Mac buffer overflow as function of time, mean"
attr unit Byte/s
scalar DummyScenario.car[9].cellularNic.nrMac macBufferOverFlowUl:mean -nan
attr source macBufferOverFlowUl
attr title "Mac buffer overflow as function of time, mean"
attr unit Byte/s
scalar DummyScenario.car[9].cellularNic.nrMac macBufferOverFlowDl:mean -nan
attr source macBufferOverFlowDl
attr title "Mac buffer overflow as function of time, mean"
attr unit Byte/s
scalar DummyScenario.car[9].cellularNic.nrMac macPacketLossDl:mean -nan
attr source macPacketLossDl
attr title "Mac Packet Loss Dl, mean"
attr unit ""
scalar DummyScenario.car[9].cellularNic.nrMac macPacketLossUl:mean -nan
attr source macPacketLossUl
attr title "Mac Packet Loss Ul, mean"
attr unit ""
scalar DummyScenario.car[9].cellularNic.nrMac macCellPacketLossUl:mean -nan
attr source macCellPacketLossUl
attr title "Mac Cell Packet Loss Ul, mean"
attr unit ""
scalar DummyScenario.car[9].cellularNic.nrMac macCellPacketLossDl:mean -nan
attr source macCellPacketLossDl
attr title "Mac Cell Packet Loss Dl, mean"
attr unit ""
scalar DummyScenario.car[9].cellularNic.nrMac macCellThroughputDl:mean -nan
attr source macCellThroughputDl
attr title "Cell Throughput at the MAC layer DL, mean"
attr unit Bps
scalar DummyScenario.car[9].cellularNic.nrMac macCellThroughputUl:mean -nan
attr source macCellThroughputUl
attr title "Cell Throughput at the MAC layer UL, mean"
attr unit Bps
scalar DummyScenario.car[9].cellularNic.nrMac macThroughputUl:mean -nan
attr source macThroughputUl
attr title "Throughput at the MAC layer UL, mean"
attr unit Bps
scalar DummyScenario.car[9].cellularNic.nrMac macDelayUl:mean -nan
attr source macDelayUl
attr title "Delay at the MAC layer UL, mean"
attr unit s
scalar DummyScenario.car[9].cellularNic.nrMac macThroughputDl:mean -nan
attr source macThroughputDl
attr title "Throughput at the MAC layer DL, mean"
attr unit Bps
scalar DummyScenario.car[9].cellularNic.nrMac macDelayDl:mean -nan
attr source macDelayDl
attr title "Delay at the MAC layer UL, mean"
attr unit s
scalar DummyScenario.car[9].cellularNic.nrMac sentPacketToLowerLayer:count 0
attr interpolationmode none
attr source sentPacketToLowerLayer
scalar DummyScenario.car[9].cellularNic.nrMac sentPacketToLowerLayer:sum(packetBytes) 0
attr interpolationmode none
attr source sentPacketToLowerLayer
scalar DummyScenario.car[9].cellularNic.nrMac sentPacketToUpperLayer:count 0
attr interpolationmode none
attr source sentPacketToUpperLayer
scalar DummyScenario.car[9].cellularNic.nrMac sentPacketToUpperLayer:sum(packetBytes) 0
attr interpolationmode none
attr source sentPacketToUpperLayer
scalar DummyScenario.car[9].cellularNic.nrMac receivedPacketFromLowerLayer:count 0
attr interpolationmode none
attr source receivedPacketFromLowerLayer
scalar DummyScenario.car[9].cellularNic.nrMac receivedPacketFromLowerLayer:sum(packetBytes) 0
attr interpolationmode none
attr source receivedPacketFromLowerLayer
scalar DummyScenario.car[9].cellularNic.nrMac receivedPacketFromUpperLayer:count 0
attr interpolationmode none
attr source receivedPacketFromUpperLayer
scalar DummyScenario.car[9].cellularNic.nrMac receivedPacketFromUpperLayer:sum(packetBytes) 0
attr interpolationmode none
attr source receivedPacketFromUpperLayer
par DummyScenario.car[9].cellularNic.nrPhy typename "\"simu5g.stack.phy.NRPhyUe\""
par DummyScenario.car[9].cellularNic.nrPhy ueTxPower 26
par DummyScenario.car[9].cellularNic.nrPhy eNodeBTxPower 46
par DummyScenario.car[9].cellularNic.nrPhy microTxPower 30
par DummyScenario.car[9].cellularNic.nrPhy txDirection "\"OMNI\""
par DummyScenario.car[9].cellularNic.nrPhy txAngle 0
par DummyScenario.car[9].cellularNic.nrPhy dynamicCellAssociation true
par DummyScenario.car[9].cellularNic.nrPhy enableHandover true
par DummyScenario.car[9].cellularNic.nrPhy handoverLatency 0.05s
attr unit s
par DummyScenario.car[9].cellularNic.nrPhy enableMulticastD2DRangeCheck false
par DummyScenario.car[9].cellularNic.nrPhy multicastD2DRange 1000m
attr unit m
par DummyScenario.car[9].cellularNic.nrPhy minRssiDefault true
par DummyScenario.car[9].cellularNic.nrPhy minRssi -99dB
attr unit dB
par DummyScenario.car[9].cellularNic.nrPhy d2dTxPower 26
par DummyScenario.car[9].cellularNic.nrPhy d2dMulticastCaptureEffect true
par DummyScenario.car[9].cellularNic.nrPhy d2dMulticastCaptureEffectFactor "\"RSRP\""
scalar DummyScenario.car[9].cellularNic.nrPhy averageCqiD2D:mean -nan
attr source averageCqiD2D
attr title "Average Cqi reported in D2D, mean"
attr unit cqi
scalar DummyScenario.car[9].cellularNic.nrPhy averageCqiUl:mean -nan
attr source averageCqiUl
attr title "Average Cqi reported in UL, mean"
attr unit cqi
scalar DummyScenario.car[9].cellularNic.nrPhy averageCqiUl:count 0
attr source averageCqiUl
attr title "Average Cqi reported in UL, count"
attr unit cqi
scalar DummyScenario.car[9].cellularNic.nrPhy averageCqiDl:mean -nan
attr source averageCqiDl
attr title "Average Cqi reported in DL, mean"
attr unit cqi
scalar DummyScenario.car[9].cellularNic.nrPhy averageCqiDl:count 0
attr source averageCqiDl
attr title "Average Cqi reported in DL, count"
attr unit cqi
par DummyScenario.car[9].cellularNic.nrChannelModel[0] typename "\"simu5g.stack.phy.ChannelModel.NRChannelModel\""
par DummyScenario.car[9].cellularNic.nrChannelModel[0] componentCarrierIndex 0
par DummyScenario.car[9].cellularNic.nrChannelModel[0] shadowing true
par DummyScenario.car[9].cellularNic.nrChannelModel[0] scenario "\"URBAN_MACROCELL\""
par DummyScenario.car[9].cellularNic.nrChannelModel[0] nodeb_height 25
par DummyScenario.car[9].cellularNic.nrChannelModel[0] building_height 20
par DummyScenario.car[9].cellularNic.nrChannelModel[0] inside_building false
par DummyScenario.car[9].cellularNic.nrChannelModel[0] street_wide 20
par DummyScenario.car[9].cellularNic.nrChannelModel[0] ue_height 1.5
par DummyScenario.car[9].cellularNic.nrChannelModel[0] tolerateMaxDistViolation false
par DummyScenario.car[9].cellularNic.nrChannelModel[0] useTorus false
par DummyScenario.car[9].cellularNic.nrChannelModel[0] correlation_distance 50
par DummyScenario.car[9].cellularNic.nrChannelModel[0] targetBler 0.01
par DummyScenario.car[9].cellularNic.nrChannelModel[0] harqReduction 0.2
par DummyScenario.car[9].cellularNic.nrChannelModel[0] lambdaMinTh 0.02
par DummyScenario.car[9].cellularNic.nrChannelModel[0] lambdaMaxTh 0.2
par DummyScenario.car[9].cellularNic.nrChannelModel[0] lambdaRatioTh 20
par DummyScenario.car[9].cellularNic.nrChannelModel[0] antennaGainUe 0
par DummyScenario.car[9].cellularNic.nrChannelModel[0] antennGainEnB 18
par DummyScenario.car[9].cellularNic.nrChannelModel[0] antennGainMicro 5
par DummyScenario.car[9].cellularNic.nrChannelModel[0] thermalNoise -104.5
par DummyScenario.car[9].cellularNic.nrChannelModel[0] ue_noise_figure 7
par DummyScenario.car[9].cellularNic.nrChannelModel[0] bs_noise_figure 5
par DummyScenario.car[9].cellularNic.nrChannelModel[0] cable_loss 2
par DummyScenario.car[9].cellularNic.nrChannelModel[0] dynamic_los false
par DummyScenario.car[9].cellularNic.nrChannelModel[0] fixed_los false
par DummyScenario.car[9].cellularNic.nrChannelModel[0] fading true
par DummyScenario.car[9].cellularNic.nrChannelModel[0] fading_type "\"JAKES\""
par DummyScenario.car[9].cellularNic.nrChannelModel[0] fading_paths 6
par DummyScenario.car[9].cellularNic.nrChannelModel[0] delay_rms 3.63e-07
par DummyScenario.car[9].cellularNic.nrChannelModel[0] bgCell_interference true
par DummyScenario.car[9].cellularNic.nrChannelModel[0] extCell_interference true
par DummyScenario.car[9].cellularNic.nrChannelModel[0] downlink_interference false
par DummyScenario.car[9].cellularNic.nrChannelModel[0] uplink_interference false
par DummyScenario.car[9].cellularNic.nrChannelModel[0] d2d_interference true
par DummyScenario.car[9].cellularNic.nrChannelModel[0] enable_extCell_los true
par DummyScenario.car[9].cellularNic.nrChannelModel[0] useRsrqFromLog false
par DummyScenario.car[9].cellularNic.nrChannelModel[0] rsrqShift 22
par DummyScenario.car[9].cellularNic.nrChannelModel[0] rsrqScale 1
par DummyScenario.car[9].cellularNic.nrChannelModel[0] collectSinrStatistics true
scalar DummyScenario.car[9].cellularNic.nrChannelModel[0] distance:mean -nan
attr source distance
attr title "distance between UE and serving eNB, mean"
attr unit meters
scalar DummyScenario.car[9].cellularNic.nrChannelModel[0] measuredSinrUl:mean 8.0028684559072
attr source measuredSinrUl
attr title "SINR measured at feedback computation, UL, mean"
attr unit dB
scalar DummyScenario.car[9].cellularNic.nrChannelModel[0] measuredSinrDl:mean 28.677297649844
attr source measuredSinrDl
attr title "SINR measured at feedback computation, DL, mean"
attr unit dB
scalar DummyScenario.car[9].cellularNic.nrChannelModel[0] rcvdSinrUl:mean -nan
attr source rcvdSinrUl
attr title "SINR measured at packet reception, UL, mean"
attr unit dB
scalar DummyScenario.car[9].cellularNic.nrChannelModel[0] rcvdSinrDl:mean -nan
attr source rcvdSinrDl
attr title "SINR measured at packet reception, DL, mean"
attr unit dB
par DummyScenario.car[9].cellularNic.nrDlFbGen typename "\"simu5g.stack.phy.feedback.LteDlFeedbackGenerator\""
par DummyScenario.car[9].cellularNic.nrDlFbGen feedbackType "\"ALLBANDS\""
par DummyScenario.car[9].cellularNic.nrDlFbGen rbAllocationType "\"localized\""
par DummyScenario.car[9].cellularNic.nrDlFbGen fbPeriod 6
par DummyScenario.car[9].cellularNic.nrDlFbGen fbDelay 1
par DummyScenario.car[9].cellularNic.nrDlFbGen usePeriodic true
par DummyScenario.car[9].cellularNic.nrDlFbGen initialTxMode "\"SINGLE_ANTENNA_PORT0\""
par DummyScenario.car[9].cellularNic.nrDlFbGen feedbackGeneratorType "\"IDEAL\""
par DummyScenario.car[9].cellularNic typename "\"simu5g.stack.NRNicUe\""
par DummyScenario.car[9].cellularNic displayStringTextFormat "\"%a (%i)\\n%m\""
par DummyScenario.car[9].cellularNic recordPcap false
par DummyScenario.car[9].cellularNic numPcapRecorders 0
par DummyScenario.car[9].cellularNic interfaceTableModule "\"DummyScenario.car[9].interfaceTable\""
par DummyScenario.car[9].cellularNic routingTableModule "\"DummyScenario.car[9].ipv4.routingTable\""
par DummyScenario.car[9].cellularNic LtePdcpRrcType "\"NRPdcpRrcUe\""
par DummyScenario.car[9].cellularNic LteMacType "\"LteMacUeD2D\""
par DummyScenario.car[9].cellularNic PacketFlowManagerType "\"PacketFlowManagerUe\""
par DummyScenario.car[9].cellularNic hasRNISupport false
par DummyScenario.car[9].cellularNic LtePhyType "\"NRPhyUe\""
par DummyScenario.car[9].cellularNic nodeType "\"UE\""
par DummyScenario.car[9].cellularNic processingDelayIn 0s
attr unit s
par DummyScenario.car[9].cellularNic processingDelayOut 0s
attr unit s
par DummyScenario.car[9].cellularNic LteChannelModelType "\"LteRealisticChannelModel\""
par DummyScenario.car[9].cellularNic d2dCapable true
par DummyScenario.car[9].cellularNic dualConnectivityEnabled false
par DummyScenario.car[9].cellularNic numCarriers 1
par DummyScenario.car[9].cellularNic address "\"0A-AA-00-00-00-0F\""
par DummyScenario.car[9].cellularNic d2dInitialMode false
par DummyScenario.car[9].cellularNic NRMacType "\"NRMacUe\""
par DummyScenario.car[9].cellularNic NRPhyType "\"NRPhyUe\""
par DummyScenario.car[9].cellularNic NRChannelModelType "\"NRChannelModel\""
par DummyScenario.car[9].cellularNic NRPacketFlowManagerType "\"NRPacketFlowManagerUe\""
par DummyScenario.car[9].cellularNic numNRCarriers 1
par DummyScenario.car[9].at typename "\"inet.common.MessageDispatcher\""
par DummyScenario.car[9].at displayStringTextFormat "\"processed %p pk (%l)\""
par DummyScenario.car[9].tn typename "\"inet.common.MessageDispatcher\""
par DummyScenario.car[9].tn displayStringTextFormat "\"processed %p pk (%l)\""
par DummyScenario.car[9].nl typename "\"inet.common.MessageDispatcher\""
par DummyScenario.car[9].nl displayStringTextFormat "\"processed %p pk (%l)\""
par DummyScenario.car[9].configurator typename "\"inet.networklayer.configurator.ipv4.HostAutoConfigurator\""
par DummyScenario.car[9].configurator interfaceTableModule "\"DummyScenario.car[9].interfaceTable\""
par DummyScenario.car[9].configurator interfaces "\"wlan\""
par DummyScenario.car[9].configurator addressBase "\"10.0.0.0\""
par DummyScenario.car[9].configurator netmask "\"255.0.0.0\""
par DummyScenario.car[9].configurator mcastGroups "\"\""
par DummyScenario.car[9] typename "\"simu5g.nodes.cars.NRCar\""
par DummyScenario.car[9] mobilityType "\"VeinsInetMobility\""
par DummyScenario.car[9] numApps 0
par DummyScenario.car[9] hasUdp true
par DummyScenario.car[9] hasTcp true
par DummyScenario.car[9] hasSctp false
par DummyScenario.car[9] nodeType "\"UE\""
par DummyScenario.car[9] masterId 0
par DummyScenario.car[9] macNodeId 1034
par DummyScenario.car[9] macCellId 0
par DummyScenario.car[9] nicType "\"NRNicUe\""
par DummyScenario.car[9] hasIpv4 true
par DummyScenario.car[9] hasIpv6 false
par DummyScenario.car[9] numEthInterfaces 0
par DummyScenario.car[9] extHostAddress "\"\""
par DummyScenario.car[9] numLoInterfaces 1
par DummyScenario.car[9] numPcapRecorders 0
par DummyScenario.car[9] hasRNISupport false
par DummyScenario.car[9] nrMasterId 1
par DummyScenario.car[9] nrMacNodeId 2058
par DummyScenario.car[9] nrMacCellId 1
par DummyScenario typename "\"syntetictracegenerator.simulations.Villarosa.DummyScenario\""
par DummyScenario playgroundSizeX 20000m
attr unit m
par DummyScenario playgroundSizeY 20000m
attr unit m
par DummyScenario playgroundSizeZ 50m
attr unit m

