version 3
run General-0-20220502-13:03:39-22408
attr configname General
attr datetime 20220502-13:03:39
attr datetimef 20220502-130339
attr experiment General
attr inifile omnetpp.ini
attr iterationvars ""
attr iterationvarsd ""
attr iterationvarsf ""
attr measurement ""
attr network syntetictracegenerator.simulations.Villarosa.DummyScenario
attr processid 22408
attr repetition 0
attr replication #0
attr resultdir results
attr runnumber 0
attr seedset 0
config image-path ../../images:../../../../../neworkspace/inet4.3/images:../../../../Simu5G/images:../../../../../workspace/veins/subprojects/veins_inet/images:../../../../../workspace/veins/images
config cmdenv-express-mode true
config cmdenv-autoflush true
config image-path ../../images
config network syntetictracegenerator.simulations.Villarosa.DummyScenario
config debug-on-errors false
config print-undisposed false
config num-rngs 3
config repeat 15
config seed-set 0
config output-scalar-file results/General/0.sca
config output-vector-file results/General/0.vec
config **.routingRecorder.enabled false
config **.scalar-recording false
config **.vector-recording false
config *.playgroundSizeX 20000m
config *.playgroundSizeY 20000m
config *.playgroundSizeZ 50m
config *.veinsManager.host "\"localhost\""
config *.veinsManager.moduleType "\"simu5g.nodes.cars.NRCar\""
config *.veinsManager.moduleName "\"car\""
config *.veinsManager.launchConfig "xmldoc(\"most.launchd.xml\")"
config *.veinsManager.updateInterval 0.1s
config *.car[*].mobilityType "\"VeinsInetMobility\""
config **.numBands 25
config **.ueTxPower 26
config **.eNodeBTxPower 46
config *.car[*].cellularNic.nrPhy.dynamicCellAssociation true
config *.car[*].masterId 0
config *.car[*].macCellId 0
config *.car[*].nrMasterId 1
config *.car[*].nrMacCellId 1
config **.gNodeB1.macCellId 1
config **.gNodeB1.macNodeId 1
config **.gNodeB2.macCellId 2
config **.gNodeB2.macNodeId 2
config *.car[*].cellularNic.nrPhy.enableHandover true
config *.gNodeB*.cellularNic.phy.enableHandover true
config *.gNodeB*.cellularNic.phy.handoverLatency 50ms
config *.gNodeB*.cellInfo.broadcastMessageInterval 1s
config *.gNodeB*.numX2Apps 2
config *.gNodeB*.x2App[*].server.localPort "5000 + ancestorIndex(1)"
config *.gNodeB1.x2App[0].client.connectAddress "\"gNodeB2%x2ppp0\""
config *.gNodeB1.x2App[1].client.connectAddress "\"gNodeB3%x2ppp0\""
config *.gNodeB2.x2App[0].client.connectAddress "\"gNodeB1%x2ppp0\""
config *.gNodeB2.x2App[1].client.connectAddress "\"gNodeB3%x2ppp0\""
config *.gNodeB3.x2App[0].client.connectAddress "\"gNodeB1%x2ppp0\""
config *.gNodeB3.x2App[1].client.connectAddress "\"gNodeB2%x2ppp0\""
config **.sctp.nagleEnabled false
config **.sctp.enableHeartbeats false
config *.gNodeB*.cellInfo.broadcastMessageInterval 0.5s
config **.fbPeriod 40
config **.amcType "\"NRAmc\""
config **.pilotMode "\"ROBUST_CQI\""
config **.targetBler 0.01
config **.blerShift 5
config **.tcp.typename Tcp
config **.tcp.advertisedWindow 65535
config **.tcp.tcpAlgorithmClass "\"TcpReno\""
config **.tcp.sackSupport true
config **.hasRNISupport true
config *.car[*].numApps 2
config *.car[*].app[0].typename DeviceApp
config *.car[*].app[0].localPort 4500
config *.car[*].app[0].UALCMPAddress "\"ualcmp\""
config *.car[*].app[0].UALCMPPort 1000
config *.car[*].app[0].appPackageSource "\"ApplicationDescriptors/WarningAlertApp.json\""
config *.car[*].app[1].typename UEWarningAlertApp
config *.car[*].app[1].deviceAppAddress "\"car[\"+string(ancestorIndex(1))+\"]\""
config *.car[*].app[1].deviceAppPort 4500
config *.car[*].app[1].startTime 1s
config *.car[*].app[1].stopTime 30s
config *.mecHost.maxMECApps 100
config *.mecHost.maxRam 32GB
config *.mecHost.maxDisk 100TB
config *.mecHost.maxCpuSpeed 400000
config *.mecHost.eNBList "\"gNodeB1\""
config *.mecHost.mecPlatform.numMecServices 1
config *.mecHost.mecPlatform.mecService[0].typename LocationService
config *.mecHost.mecPlatform.mecService[0].localAddress "\"mecHost.mecPlatform\""
config *.mecHost.mecPlatform.mecService[0].localPort 10020
config *.mecHost.mecPlatform.mecService[0].rng-0 0
config *.mecHost.mecPlatform.mecService[0].rng-1 1
config *.mecHost.mecPlatform.mecService[0].requestServiceTime 100us
config *.mecHost.mecPlatform.mecService[0].subscriptionServiceTime 11us
config *.mecHost.mecPlatform.serviceRegistry.localAddress "\"mecHost.mecPlatform\""
config *.mecHost.mecPlatform.serviceRegistry.localPort 10021
config *.mecHost.mecPlatform.serviceRegistry.rng-0 0
config *.mecHost.mecPlatform.serviceRegistry.rng-1 1
config **.gNodeB*.mecHost "\"mecHost\""
config *.mecHost.mecPlatformManager.mecOrchestrator "\"mecOrchestrator\""
config **.mecOrchestrator.mecHostList "\"mecHost\""

par DummyScenario.upf.pppg$o[0].channel typename "\"inet.node.ethernet.Eth10G\""
par DummyScenario.upf.pppg$o[0].channel disabled false
par DummyScenario.upf.pppg$o[0].channel delay 5e-08s
attr unit s
par DummyScenario.upf.pppg$o[0].channel datarate 1e+10bps
attr unit bps
par DummyScenario.upf.pppg$o[0].channel ber 0
par DummyScenario.upf.pppg$o[0].channel per 0
par DummyScenario.upf.pppg$o[0].channel length 10m
attr unit m
par DummyScenario.gNodeB1.ppp$o.channel typename "\"inet.node.ethernet.Eth10G\""
par DummyScenario.gNodeB1.ppp$o.channel disabled false
par DummyScenario.gNodeB1.ppp$o.channel delay 5e-08s
attr unit s
par DummyScenario.gNodeB1.ppp$o.channel datarate 1e+10bps
attr unit bps
par DummyScenario.gNodeB1.ppp$o.channel ber 0
par DummyScenario.gNodeB1.ppp$o.channel per 0
par DummyScenario.gNodeB1.ppp$o.channel length 10m
attr unit m
par DummyScenario.upf.pppg$o[1].channel typename "\"inet.node.ethernet.Eth10G\""
par DummyScenario.upf.pppg$o[1].channel disabled false
par DummyScenario.upf.pppg$o[1].channel delay 5e-08s
attr unit s
par DummyScenario.upf.pppg$o[1].channel datarate 1e+10bps
attr unit bps
par DummyScenario.upf.pppg$o[1].channel ber 0
par DummyScenario.upf.pppg$o[1].channel per 0
par DummyScenario.upf.pppg$o[1].channel length 10m
attr unit m
par DummyScenario.gNodeB2.ppp$o.channel typename "\"inet.node.ethernet.Eth10G\""
par DummyScenario.gNodeB2.ppp$o.channel disabled false
par DummyScenario.gNodeB2.ppp$o.channel delay 5e-08s
attr unit s
par DummyScenario.gNodeB2.ppp$o.channel datarate 1e+10bps
attr unit bps
par DummyScenario.gNodeB2.ppp$o.channel ber 0
par DummyScenario.gNodeB2.ppp$o.channel per 0
par DummyScenario.gNodeB2.ppp$o.channel length 10m
attr unit m
par DummyScenario.upf.pppg$o[2].channel typename "\"inet.node.ethernet.Eth10G\""
par DummyScenario.upf.pppg$o[2].channel disabled false
par DummyScenario.upf.pppg$o[2].channel delay 5e-08s
attr unit s
par DummyScenario.upf.pppg$o[2].channel datarate 1e+10bps
attr unit bps
par DummyScenario.upf.pppg$o[2].channel ber 0
par DummyScenario.upf.pppg$o[2].channel per 0
par DummyScenario.upf.pppg$o[2].channel length 10m
attr unit m
par DummyScenario.gNodeB3.ppp$o.channel typename "\"inet.node.ethernet.Eth10G\""
par DummyScenario.gNodeB3.ppp$o.channel disabled false
par DummyScenario.gNodeB3.ppp$o.channel delay 5e-08s
attr unit s
par DummyScenario.gNodeB3.ppp$o.channel datarate 1e+10bps
attr unit bps
par DummyScenario.gNodeB3.ppp$o.channel ber 0
par DummyScenario.gNodeB3.ppp$o.channel per 0
par DummyScenario.gNodeB3.ppp$o.channel length 10m
attr unit m
par DummyScenario.ualcmp.ppp$o[0].channel typename "\"inet.node.ethernet.Eth10G\""
par DummyScenario.ualcmp.ppp$o[0].channel disabled false
par DummyScenario.ualcmp.ppp$o[0].channel delay 5e-08s
attr unit s
par DummyScenario.ualcmp.ppp$o[0].channel datarate 1e+10bps
attr unit bps
par DummyScenario.ualcmp.ppp$o[0].channel ber 0
par DummyScenario.ualcmp.ppp$o[0].channel per 0
par DummyScenario.ualcmp.ppp$o[0].channel length 10m
attr unit m
par DummyScenario.upf.filterGate$o.channel typename "\"inet.node.ethernet.Eth10G\""
par DummyScenario.upf.filterGate$o.channel disabled false
par DummyScenario.upf.filterGate$o.channel delay 5e-08s
attr unit s
par DummyScenario.upf.filterGate$o.channel datarate 1e+10bps
attr unit bps
par DummyScenario.upf.filterGate$o.channel ber 0
par DummyScenario.upf.filterGate$o.channel per 0
par DummyScenario.upf.filterGate$o.channel length 10m
attr unit m
par DummyScenario.gNodeB1.x2$o[0].channel typename "\"inet.node.ethernet.Eth10G\""
par DummyScenario.gNodeB1.x2$o[0].channel disabled false
par DummyScenario.gNodeB1.x2$o[0].channel delay 5e-08s
attr unit s
par DummyScenario.gNodeB1.x2$o[0].channel datarate 1e+10bps
attr unit bps
par DummyScenario.gNodeB1.x2$o[0].channel ber 0
par DummyScenario.gNodeB1.x2$o[0].channel per 0
par DummyScenario.gNodeB1.x2$o[0].channel length 10m
attr unit m
par DummyScenario.gNodeB2.x2$o[0].channel typename "\"inet.node.ethernet.Eth10G\""
par DummyScenario.gNodeB2.x2$o[0].channel disabled false
par DummyScenario.gNodeB2.x2$o[0].channel delay 5e-08s
attr unit s
par DummyScenario.gNodeB2.x2$o[0].channel datarate 1e+10bps
attr unit bps
par DummyScenario.gNodeB2.x2$o[0].channel ber 0
par DummyScenario.gNodeB2.x2$o[0].channel per 0
par DummyScenario.gNodeB2.x2$o[0].channel length 10m
attr unit m
par DummyScenario.gNodeB2.x2$o[1].channel typename "\"inet.node.ethernet.Eth10G\""
par DummyScenario.gNodeB2.x2$o[1].channel disabled false
par DummyScenario.gNodeB2.x2$o[1].channel delay 5e-08s
attr unit s
par DummyScenario.gNodeB2.x2$o[1].channel datarate 1e+10bps
attr unit bps
par DummyScenario.gNodeB2.x2$o[1].channel ber 0
par DummyScenario.gNodeB2.x2$o[1].channel per 0
par DummyScenario.gNodeB2.x2$o[1].channel length 10m
attr unit m
par DummyScenario.gNodeB3.x2$o[0].channel typename "\"inet.node.ethernet.Eth10G\""
par DummyScenario.gNodeB3.x2$o[0].channel disabled false
par DummyScenario.gNodeB3.x2$o[0].channel delay 5e-08s
attr unit s
par DummyScenario.gNodeB3.x2$o[0].channel datarate 1e+10bps
attr unit bps
par DummyScenario.gNodeB3.x2$o[0].channel ber 0
par DummyScenario.gNodeB3.x2$o[0].channel per 0
par DummyScenario.gNodeB3.x2$o[0].channel length 10m
attr unit m
par DummyScenario.gNodeB1.x2$o[1].channel typename "\"inet.node.ethernet.Eth10G\""
par DummyScenario.gNodeB1.x2$o[1].channel disabled false
par DummyScenario.gNodeB1.x2$o[1].channel delay 5e-08s
attr unit s
par DummyScenario.gNodeB1.x2$o[1].channel datarate 1e+10bps
attr unit bps
par DummyScenario.gNodeB1.x2$o[1].channel ber 0
par DummyScenario.gNodeB1.x2$o[1].channel per 0
par DummyScenario.gNodeB1.x2$o[1].channel length 10m
attr unit m
par DummyScenario.gNodeB3.x2$o[1].channel typename "\"inet.node.ethernet.Eth10G\""
par DummyScenario.gNodeB3.x2$o[1].channel disabled false
par DummyScenario.gNodeB3.x2$o[1].channel delay 5e-08s
attr unit s
par DummyScenario.gNodeB3.x2$o[1].channel datarate 1e+10bps
attr unit bps
par DummyScenario.gNodeB3.x2$o[1].channel ber 0
par DummyScenario.gNodeB3.x2$o[1].channel per 0
par DummyScenario.gNodeB3.x2$o[1].channel length 10m
attr unit m
par DummyScenario.mecHost.pppENB$o[0].channel typename "\"inet.node.ethernet.Eth10G\""
par DummyScenario.mecHost.pppENB$o[0].channel disabled false
par DummyScenario.mecHost.pppENB$o[0].channel delay 5e-08s
attr unit s
par DummyScenario.mecHost.pppENB$o[0].channel datarate 1e+10bps
attr unit bps
par DummyScenario.mecHost.pppENB$o[0].channel ber 0
par DummyScenario.mecHost.pppENB$o[0].channel per 0
par DummyScenario.mecHost.pppENB$o[0].channel length 10m
attr unit m
par DummyScenario.gNodeB1.pppMEHost$o.channel typename "\"inet.node.ethernet.Eth10G\""
par DummyScenario.gNodeB1.pppMEHost$o.channel disabled false
par DummyScenario.gNodeB1.pppMEHost$o.channel delay 5e-08s
attr unit s
par DummyScenario.gNodeB1.pppMEHost$o.channel datarate 1e+10bps
attr unit bps
par DummyScenario.gNodeB1.pppMEHost$o.channel ber 0
par DummyScenario.gNodeB1.pppMEHost$o.channel per 0
par DummyScenario.gNodeB1.pppMEHost$o.channel length 10m
attr unit m
par DummyScenario.mecHost.pppENB$o[1].channel typename "\"inet.node.ethernet.Eth10G\""
par DummyScenario.mecHost.pppENB$o[1].channel disabled false
par DummyScenario.mecHost.pppENB$o[1].channel delay 5e-08s
attr unit s
par DummyScenario.mecHost.pppENB$o[1].channel datarate 1e+10bps
attr unit bps
par DummyScenario.mecHost.pppENB$o[1].channel ber 0
par DummyScenario.mecHost.pppENB$o[1].channel per 0
par DummyScenario.mecHost.pppENB$o[1].channel length 10m
attr unit m
par DummyScenario.gNodeB2.pppMEHost$o.channel typename "\"inet.node.ethernet.Eth10G\""
par DummyScenario.gNodeB2.pppMEHost$o.channel disabled false
par DummyScenario.gNodeB2.pppMEHost$o.channel delay 5e-08s
attr unit s
par DummyScenario.gNodeB2.pppMEHost$o.channel datarate 1e+10bps
attr unit bps
par DummyScenario.gNodeB2.pppMEHost$o.channel ber 0
par DummyScenario.gNodeB2.pppMEHost$o.channel per 0
par DummyScenario.gNodeB2.pppMEHost$o.channel length 10m
attr unit m
par DummyScenario.mecHost.pppENB$o[2].channel typename "\"inet.node.ethernet.Eth10G\""
par DummyScenario.mecHost.pppENB$o[2].channel disabled false
par DummyScenario.mecHost.pppENB$o[2].channel delay 5e-08s
attr unit s
par DummyScenario.mecHost.pppENB$o[2].channel datarate 1e+10bps
attr unit bps
par DummyScenario.mecHost.pppENB$o[2].channel ber 0
par DummyScenario.mecHost.pppENB$o[2].channel per 0
par DummyScenario.mecHost.pppENB$o[2].channel length 10m
attr unit m
par DummyScenario.gNodeB3.pppMEHost$o.channel typename "\"inet.node.ethernet.Eth10G\""
par DummyScenario.gNodeB3.pppMEHost$o.channel disabled false
par DummyScenario.gNodeB3.pppMEHost$o.channel delay 5e-08s
attr unit s
par DummyScenario.gNodeB3.pppMEHost$o.channel datarate 1e+10bps
attr unit bps
par DummyScenario.gNodeB3.pppMEHost$o.channel ber 0
par DummyScenario.gNodeB3.pppMEHost$o.channel per 0
par DummyScenario.gNodeB3.pppMEHost$o.channel length 10m
attr unit m
par DummyScenario.routingRecorder typename "\"inet.networklayer.ipv4.RoutingTableRecorder\""
par DummyScenario.routingRecorder enabled false
par DummyScenario.configurator typename "\"inet.networklayer.configurator.ipv4.Ipv4NetworkConfigurator\""
par DummyScenario.configurator minLinkWeight 0.001
par DummyScenario.configurator configureIsolatedNetworksSeparatly false
par DummyScenario.configurator config "<config>...</config> at /home/skela/Documents/WORKSPACE/software/test/SynteticTraceGenerator/SynteticTraceGenerator/simulations/Villarosa/demo.xml:1"
par DummyScenario.configurator assignAddresses true
par DummyScenario.configurator assignUniqueAddresses true
par DummyScenario.configurator assignDisjunctSubnetAddresses true
par DummyScenario.configurator addStaticRoutes true
par DummyScenario.configurator addDefaultRoutes true
par DummyScenario.configurator addSubnetRoutes true
par DummyScenario.configurator addDirectRoutes true
par DummyScenario.configurator optimizeRoutes true
par DummyScenario.configurator dumpTopology false
par DummyScenario.configurator dumpLinks false
par DummyScenario.configurator dumpAddresses false
par DummyScenario.configurator dumpRoutes false
par DummyScenario.configurator dumpConfig "\"\""
par DummyScenario.veinsManager typename "\"org.car2x.veins.subprojects.veins_inet.VeinsInetManager\""
par DummyScenario.veinsManager connectAt 0s
attr unit s
par DummyScenario.veinsManager firstStepAt -1s
attr unit s
par DummyScenario.veinsManager updateInterval 0.1s
attr unit s
par DummyScenario.veinsManager moduleType "\"simu5g.nodes.cars.NRCar\""
par DummyScenario.veinsManager moduleName "\"car\""
par DummyScenario.veinsManager moduleDisplayString "\"*='i=veins/node/car;is=vs'\""
par DummyScenario.veinsManager trafficLightModuleType "\"\""
par DummyScenario.veinsManager trafficLightModuleName "\"tls\""
par DummyScenario.veinsManager trafficLightFilter "\"\""
par DummyScenario.veinsManager trafficLightModuleDisplayString "\"i=misc/node2;is=vs;r=0,,#707070,1\""
par DummyScenario.veinsManager host "\"localhost\""
par DummyScenario.veinsManager port 9999
par DummyScenario.veinsManager seed -1
par DummyScenario.veinsManager autoShutdown true
par DummyScenario.veinsManager margin 25
par DummyScenario.veinsManager roiRoads "\"\""
par DummyScenario.veinsManager roiRects "\"\""
par DummyScenario.veinsManager penetrationRate 1
par DummyScenario.veinsManager ignoreGuiCommands false
par DummyScenario.veinsManager launchConfig "<launch>...</launch> at /home/skela/Documents/WORKSPACE/software/test/SynteticTraceGenerator/SynteticTraceGenerator/simulations/Monaco/most.launchd.xml:10"
par DummyScenario.channelControl typename "\"simu5g.world.radio.LteChannelControl\""
par DummyScenario.channelControl coreDebug false
par DummyScenario.channelControl pMax 20mW
attr unit mW
par DummyScenario.channelControl sat -110dBm
attr unit dBm
par DummyScenario.channelControl alpha 2
par DummyScenario.channelControl carrierFrequency 2.4e+09Hz
attr unit Hz
par DummyScenario.channelControl numChannels 1
par DummyScenario.channelControl propagationModel "\"FreeSpaceModel\""
attr enum FreeSpaceModel,TwoRayGroundModel,RiceModel,RayleighModel,NakagamiModel,LogNormalShadowingModel
par DummyScenario.binder typename "\"simu5g.common.binder.Binder\""
par DummyScenario.binder blerShift 5
par DummyScenario.binder maxDataRatePerRb 1.16Mbps
attr unit Mbps
par DummyScenario.binder printTrafficGeneratorConfig false
par DummyScenario.carrierAggregation.componentCarrier[0] typename "\"simu5g.common.carrierAggregation.ComponentCarrier\""
par DummyScenario.carrierAggregation.componentCarrier[0] carrierFrequency 2GHz
attr unit GHz
par DummyScenario.carrierAggregation.componentCarrier[0] numBands 25
par DummyScenario.carrierAggregation.componentCarrier[0] numerologyIndex 0
par DummyScenario.carrierAggregation.componentCarrier[0] useTdd false
par DummyScenario.carrierAggregation.componentCarrier[0] tddNumSymbolsDl 7
par DummyScenario.carrierAggregation.componentCarrier[0] tddNumSymbolsUl 7
par DummyScenario.carrierAggregation typename "\"simu5g.common.carrierAggregation.CarrierAggregation\""
par DummyScenario.carrierAggregation numComponentCarriers 1
par DummyScenario.roadsCanvasVisualizer typename "\"org.car2x.veins.visualizer.roads.RoadsCanvasVisualizer\""
par DummyScenario.roadsCanvasVisualizer enabled true
par DummyScenario.roadsCanvasVisualizer lineZIndex -1
par DummyScenario.roadsCanvasVisualizer lineColor "\"firebrick4\""
par DummyScenario.roadsCanvasVisualizer lineWidth 1
par DummyScenario.roadsCanvasVisualizer lineWidthZoom false
par DummyScenario.upf.pppg$i[0].channel typename "\"ned.IdealChannel\""
par DummyScenario.upf.ppp[0].phys$o.channel typename "\"ned.IdealChannel\""
par DummyScenario.upf.pppg$i[1].channel typename "\"ned.IdealChannel\""
par DummyScenario.upf.ppp[1].phys$o.channel typename "\"ned.IdealChannel\""
par DummyScenario.upf.pppg$i[2].channel typename "\"ned.IdealChannel\""
par DummyScenario.upf.ppp[2].phys$o.channel typename "\"ned.IdealChannel\""
par DummyScenario.upf.interfaceTable typename "\"inet.networklayer.common.InterfaceTable\""
par DummyScenario.upf.interfaceTable displayAddresses false
par DummyScenario.upf.li typename "\"inet.common.MessageDispatcher\""
par DummyScenario.upf.li displayStringTextFormat "\"processed %p pk (%l)\""
par DummyScenario.upf.lo[0].upperLayerIn.channel typename "\"ned.IdealChannel\""
par DummyScenario.upf.lo[0].lo.upperLayerOut.channel typename "\"ned.IdealChannel\""
par DummyScenario.upf.lo[0].lo typename "\"inet.linklayer.loopback.Loopback\""
par DummyScenario.upf.lo[0].lo interfaceTableModule "\"DummyScenario.upf.interfaceTable\""
par DummyScenario.upf.lo[0].lo mtu 4470B
attr unit B
par DummyScenario.upf.lo[0] typename "\"inet.linklayer.loopback.LoopbackInterface\""
par DummyScenario.upf.lo[0] displayStringTextFormat "\"%a (%i)\\n%m\""
par DummyScenario.upf.lo[0] recordPcap false
par DummyScenario.upf.lo[0] numPcapRecorders 0
par DummyScenario.upf.lo[0] interfaceTableModule "\"DummyScenario.upf.interfaceTable\""
par DummyScenario.upf.ppp[0].upperLayerIn.channel typename "\"ned.IdealChannel\""
par DummyScenario.upf.ppp[0].phys$i.channel typename "\"ned.IdealChannel\""
par DummyScenario.upf.ppp[0].ppp.phys$o.channel typename "\"ned.IdealChannel\""
par DummyScenario.upf.ppp[0].ppp.upperLayerOut.channel typename "\"ned.IdealChannel\""
par DummyScenario.upf.ppp[0].ppp.queue typename "\"inet.queueing.queue.DropTailQueue\""
par DummyScenario.upf.ppp[0].ppp.queue displayStringTextFormat "\"contains %p pk (%l) pushed %u\\npulled %o removed %r dropped %d\""
par DummyScenario.upf.ppp[0].ppp.queue packetCapacity 10000
par DummyScenario.upf.ppp[0].ppp.queue dataCapacity -1b
attr unit b
par DummyScenario.upf.ppp[0].ppp.queue dropperClass "\"inet::queueing::PacketAtCollectionEndDropper\""
par DummyScenario.upf.ppp[0].ppp.queue comparatorClass "\"\""
par DummyScenario.upf.ppp[0].ppp.queue bufferModule "\"\""
par DummyScenario.upf.ppp[0].ppp typename "\"inet.linklayer.ppp.Ppp\""
par DummyScenario.upf.ppp[0].ppp interfaceTableModule "\"DummyScenario.upf.interfaceTable\""
par DummyScenario.upf.ppp[0].ppp displayStringTextFormat "\"rate: %b\\nsent: %s, rcvd: %r\\nqueue: %q, drop: %d\""
par DummyScenario.upf.ppp[0].ppp sendRawBytes false
par DummyScenario.upf.ppp[0].ppp mtu 4470B
attr unit B
par DummyScenario.upf.ppp[0].ppp stopOperationExtraTime -1s
attr unit s
par DummyScenario.upf.ppp[0].ppp stopOperationTimeout 2s
attr unit s
par DummyScenario.upf.ppp[0] typename "\"inet.linklayer.ppp.PppInterface\""
par DummyScenario.upf.ppp[0] displayStringTextFormat "\"%a (%i)\\n%m\""
par DummyScenario.upf.ppp[0] recordPcap false
par DummyScenario.upf.ppp[0] numPcapRecorders 0
par DummyScenario.upf.ppp[0] interfaceTableModule "\"DummyScenario.upf.interfaceTable\""
par DummyScenario.upf.ppp[1].upperLayerIn.channel typename "\"ned.IdealChannel\""
par DummyScenario.upf.ppp[1].phys$i.channel typename "\"ned.IdealChannel\""
par DummyScenario.upf.ppp[1].ppp.phys$o.channel typename "\"ned.IdealChannel\""
par DummyScenario.upf.ppp[1].ppp.upperLayerOut.channel typename "\"ned.IdealChannel\""
par DummyScenario.upf.ppp[1].ppp.queue typename "\"inet.queueing.queue.DropTailQueue\""
par DummyScenario.upf.ppp[1].ppp.queue displayStringTextFormat "\"contains %p pk (%l) pushed %u\\npulled %o removed %r dropped %d\""
par DummyScenario.upf.ppp[1].ppp.queue packetCapacity 10000
par DummyScenario.upf.ppp[1].ppp.queue dataCapacity -1b
attr unit b
par DummyScenario.upf.ppp[1].ppp.queue dropperClass "\"inet::queueing::PacketAtCollectionEndDropper\""
par DummyScenario.upf.ppp[1].ppp.queue comparatorClass "\"\""
par DummyScenario.upf.ppp[1].ppp.queue bufferModule "\"\""
par DummyScenario.upf.ppp[1].ppp typename "\"inet.linklayer.ppp.Ppp\""
par DummyScenario.upf.ppp[1].ppp interfaceTableModule "\"DummyScenario.upf.interfaceTable\""
par DummyScenario.upf.ppp[1].ppp displayStringTextFormat "\"rate: %b\\nsent: %s, rcvd: %r\\nqueue: %q, drop: %d\""
par DummyScenario.upf.ppp[1].ppp sendRawBytes false
par DummyScenario.upf.ppp[1].ppp mtu 4470B
attr unit B
par DummyScenario.upf.ppp[1].ppp stopOperationExtraTime -1s
attr unit s
par DummyScenario.upf.ppp[1].ppp stopOperationTimeout 2s
attr unit s
par DummyScenario.upf.ppp[1] typename "\"inet.linklayer.ppp.PppInterface\""
par DummyScenario.upf.ppp[1] displayStringTextFormat "\"%a (%i)\\n%m\""
par DummyScenario.upf.ppp[1] recordPcap false
par DummyScenario.upf.ppp[1] numPcapRecorders 0
par DummyScenario.upf.ppp[1] interfaceTableModule "\"DummyScenario.upf.interfaceTable\""
par DummyScenario.upf.ppp[2].upperLayerIn.channel typename "\"ned.IdealChannel\""
par DummyScenario.upf.ppp[2].phys$i.channel typename "\"ned.IdealChannel\""
par DummyScenario.upf.ppp[2].ppp.phys$o.channel typename "\"ned.IdealChannel\""
par DummyScenario.upf.ppp[2].ppp.upperLayerOut.channel typename "\"ned.IdealChannel\""
par DummyScenario.upf.ppp[2].ppp.queue typename "\"inet.queueing.queue.DropTailQueue\""
par DummyScenario.upf.ppp[2].ppp.queue displayStringTextFormat "\"contains %p pk (%l) pushed %u\\npulled %o removed %r dropped %d\""
par DummyScenario.upf.ppp[2].ppp.queue packetCapacity 10000
par DummyScenario.upf.ppp[2].ppp.queue dataCapacity -1b
attr unit b
par DummyScenario.upf.ppp[2].ppp.queue dropperClass "\"inet::queueing::PacketAtCollectionEndDropper\""
par DummyScenario.upf.ppp[2].ppp.queue comparatorClass "\"\""
par DummyScenario.upf.ppp[2].ppp.queue bufferModule "\"\""
par DummyScenario.upf.ppp[2].ppp typename "\"inet.linklayer.ppp.Ppp\""
par DummyScenario.upf.ppp[2].ppp interfaceTableModule "\"DummyScenario.upf.interfaceTable\""
par DummyScenario.upf.ppp[2].ppp displayStringTextFormat "\"rate: %b\\nsent: %s, rcvd: %r\\nqueue: %q, drop: %d\""
par DummyScenario.upf.ppp[2].ppp sendRawBytes false
par DummyScenario.upf.ppp[2].ppp mtu 4470B
attr unit B
par DummyScenario.upf.ppp[2].ppp stopOperationExtraTime -1s
attr unit s
par DummyScenario.upf.ppp[2].ppp stopOperationTimeout 2s
attr unit s
par DummyScenario.upf.ppp[2] typename "\"inet.linklayer.ppp.PppInterface\""
par DummyScenario.upf.ppp[2] displayStringTextFormat "\"%a (%i)\\n%m\""
par DummyScenario.upf.ppp[2] recordPcap false
par DummyScenario.upf.ppp[2] numPcapRecorders 0
par DummyScenario.upf.ppp[2] interfaceTableModule "\"DummyScenario.upf.interfaceTable\""
par DummyScenario.upf.ipv4.transportIn.channel typename "\"ned.IdealChannel\""
par DummyScenario.upf.ipv4.up.out[0].channel typename "\"ned.IdealChannel\""
par DummyScenario.upf.ipv4.lp.out[2].channel typename "\"ned.IdealChannel\""
par DummyScenario.upf.ipv4.ifIn.channel typename "\"ned.IdealChannel\""
par DummyScenario.upf.ipv4.configurator typename "\"inet.networklayer.configurator.ipv4.Ipv4NodeConfigurator\""
par DummyScenario.upf.ipv4.configurator interfaceTableModule "\"DummyScenario.upf.interfaceTable\""
par DummyScenario.upf.ipv4.configurator routingTableModule "\"DummyScenario.upf.ipv4.routingTable\""
par DummyScenario.upf.ipv4.configurator networkConfiguratorModule "\"configurator\""
par DummyScenario.upf.ipv4.configurator configureRoutingTable true
par DummyScenario.upf.ipv4.routingTable typename "\"inet.networklayer.ipv4.Ipv4RoutingTable\""
par DummyScenario.upf.ipv4.routingTable interfaceTableModule "\"DummyScenario.upf.interfaceTable\""
par DummyScenario.upf.ipv4.routingTable routerId "\"auto\""
par DummyScenario.upf.ipv4.routingTable netmaskRoutes "\"*\""
par DummyScenario.upf.ipv4.routingTable forwarding true
par DummyScenario.upf.ipv4.routingTable multicastForwarding false
par DummyScenario.upf.ipv4.routingTable useAdminDist false
par DummyScenario.upf.ipv4.routingTable routingFile "\"\""
par DummyScenario.upf.ipv4.natTable typename "\"inet.networklayer.ipv4.Ipv4NatTable\""
par DummyScenario.upf.ipv4.natTable networkProtocolModule "\"^.ip\""
par DummyScenario.upf.ipv4.natTable config "<config/> at content:1"
par DummyScenario.upf.ipv4.up typename "\"inet.common.MessageDispatcher\""
par DummyScenario.upf.ipv4.up displayStringTextFormat "\"processed %p pk (%l)\""
par DummyScenario.upf.ipv4.igmp typename "\"inet.networklayer.ipv4.Igmpv2\""
par DummyScenario.upf.ipv4.igmp interfaceTableModule "\"DummyScenario.upf.interfaceTable\""
par DummyScenario.upf.ipv4.igmp routingTableModule "\"DummyScenario.upf.ipv4.routingTable\""
par DummyScenario.upf.ipv4.igmp crcMode "\"declared\""
attr enum declared,computed
par DummyScenario.upf.ipv4.igmp enabled true
par DummyScenario.upf.ipv4.igmp robustnessVariable 2
par DummyScenario.upf.ipv4.igmp queryInterval 125s
attr unit s
par DummyScenario.upf.ipv4.igmp queryResponseInterval 10s
attr unit s
par DummyScenario.upf.ipv4.igmp groupMembershipInterval 260s
attr unit s
par DummyScenario.upf.ipv4.igmp otherQuerierPresentInterval 255s
attr unit s
par DummyScenario.upf.ipv4.igmp startupQueryInterval 31.25s
attr unit s
par DummyScenario.upf.ipv4.igmp startupQueryCount 2
par DummyScenario.upf.ipv4.igmp lastMemberQueryInterval 1s
attr unit s
par DummyScenario.upf.ipv4.igmp lastMemberQueryCount 2
par DummyScenario.upf.ipv4.igmp unsolicitedReportInterval 10s
attr unit s
par DummyScenario.upf.ipv4.icmp typename "\"inet.networklayer.ipv4.Icmp\""
par DummyScenario.upf.ipv4.icmp interfaceTableModule "\"DummyScenario.upf.interfaceTable\""
par DummyScenario.upf.ipv4.icmp routingTableModule "\"DummyScenario.upf.ipv4.routingTable\""
par DummyScenario.upf.ipv4.icmp crcMode "\"declared\""
attr enum declared,computed
par DummyScenario.upf.ipv4.icmp quoteLength 8B
attr unit B
par DummyScenario.upf.ipv4.mp typename "\"inet.common.MessageDispatcher\""
par DummyScenario.upf.ipv4.mp displayStringTextFormat "\"processed %p pk (%l)\""
par DummyScenario.upf.ipv4.ip typename "\"inet.networklayer.ipv4.Ipv4\""
par DummyScenario.upf.ipv4.ip interfaceTableModule "\"DummyScenario.upf.interfaceTable\""
par DummyScenario.upf.ipv4.ip routingTableModule "\"DummyScenario.upf.ipv4.routingTable\""
par DummyScenario.upf.ipv4.ip arpModule "\"DummyScenario.upf.ipv4.arp\""
par DummyScenario.upf.ipv4.ip icmpModule "\"DummyScenario.upf.ipv4.icmp\""
par DummyScenario.upf.ipv4.ip crcMode "\"declared\""
attr enum declared,computed
par DummyScenario.upf.ipv4.ip timeToLive 32
par DummyScenario.upf.ipv4.ip multicastTimeToLive 32
par DummyScenario.upf.ipv4.ip fragmentTimeout 60s
attr unit s
par DummyScenario.upf.ipv4.ip limitedBroadcast false
par DummyScenario.upf.ipv4.ip directBroadcastInterfaces "\"\""
par DummyScenario.upf.ipv4.arp typename "\"inet.networklayer.arp.ipv4.Arp\""
par DummyScenario.upf.ipv4.arp interfaceTableModule "\"DummyScenario.upf.interfaceTable\""
par DummyScenario.upf.ipv4.arp routingTableModule "\"DummyScenario.upf.ipv4.routingTable\""
par DummyScenario.upf.ipv4.arp retryTimeout 1s
attr unit s
par DummyScenario.upf.ipv4.arp retryCount 3
par DummyScenario.upf.ipv4.arp cacheTimeout 120s
attr unit s
par DummyScenario.upf.ipv4.arp proxyArpInterfaces "\"*\""
par DummyScenario.upf.ipv4.lp typename "\"inet.common.MessageDispatcher\""
par DummyScenario.upf.ipv4.lp displayStringTextFormat "\"processed %p pk (%l)\""
par DummyScenario.upf.ipv4 typename "\"inet.networklayer.ipv4.Ipv4NetworkLayer\""
par DummyScenario.upf.ipv4 forwarding true
par DummyScenario.upf.ipv4 multicastForwarding false
par DummyScenario.upf.ipv4 interfaceTableModule "\"DummyScenario.upf.interfaceTable\""
par DummyScenario.upf.ipv4 displayStringTextFormat "\"%i\""
par DummyScenario.upf.nl typename "\"inet.common.MessageDispatcher\""
par DummyScenario.upf.nl displayStringTextFormat "\"processed %p pk (%l)\""
par DummyScenario.upf.pppIf.upperLayerIn.channel typename "\"ned.IdealChannel\""
par DummyScenario.upf.pppIf.phys$i.channel typename "\"ned.IdealChannel\""
par DummyScenario.upf.pppIf.ppp.phys$o.channel typename "\"ned.IdealChannel\""
par DummyScenario.upf.pppIf.ppp.upperLayerOut.channel typename "\"ned.IdealChannel\""
par DummyScenario.upf.pppIf.ppp.queue typename "\"inet.queueing.queue.DropTailQueue\""
par DummyScenario.upf.pppIf.ppp.queue displayStringTextFormat "\"contains %p pk (%l) pushed %u\\npulled %o removed %r dropped %d\""
par DummyScenario.upf.pppIf.ppp.queue packetCapacity 10000
par DummyScenario.upf.pppIf.ppp.queue dataCapacity -1b
attr unit b
par DummyScenario.upf.pppIf.ppp.queue dropperClass "\"inet::queueing::PacketAtCollectionEndDropper\""
par DummyScenario.upf.pppIf.ppp.queue comparatorClass "\"\""
par DummyScenario.upf.pppIf.ppp.queue bufferModule "\"\""
par DummyScenario.upf.pppIf.ppp typename "\"inet.linklayer.ppp.Ppp\""
par DummyScenario.upf.pppIf.ppp interfaceTableModule "\"DummyScenario.upf.interfaceTable\""
par DummyScenario.upf.pppIf.ppp displayStringTextFormat "\"rate: %b\\nsent: %s, rcvd: %r\\nqueue: %q, drop: %d\""
par DummyScenario.upf.pppIf.ppp sendRawBytes false
par DummyScenario.upf.pppIf.ppp mtu 4470B
attr unit B
par DummyScenario.upf.pppIf.ppp stopOperationExtraTime -1s
attr unit s
par DummyScenario.upf.pppIf.ppp stopOperationTimeout 2s
attr unit s
par DummyScenario.upf.pppIf typename "\"inet.linklayer.ppp.PppInterface\""
par DummyScenario.upf.pppIf displayStringTextFormat "\"%a (%i)\\n%m\""
par DummyScenario.upf.pppIf recordPcap false
par DummyScenario.upf.pppIf numPcapRecorders 0
par DummyScenario.upf.pppIf interfaceTableModule "\"DummyScenario.upf.interfaceTable\""
par DummyScenario.upf.udp typename "\"inet.transportlayer.udp.Udp\""
par DummyScenario.upf.udp interfaceTableModule "\"DummyScenario.upf.interfaceTable\""
par DummyScenario.upf.udp icmpModule "\"^.ipv4.icmp\""
par DummyScenario.upf.udp icmpv6Module "\"^.ipv6.icmpv6\""
par DummyScenario.upf.udp crcMode "\"declared\""
attr enum disabled,declared,computed
par DummyScenario.upf.trafficFlowFilter typename "\"simu5g.corenetwork.trafficFlowFilter.TrafficFlowFilter\""
par DummyScenario.upf.trafficFlowFilter ownerType "\"UPF\""
par DummyScenario.upf.trafficFlowFilter fastForwarding true
par DummyScenario.upf.gtp_user typename "\"simu5g.corenetwork.gtp.GtpUser\""
par DummyScenario.upf.gtp_user interfaceTableModule "\"DummyScenario.upf.interfaceTable\""
par DummyScenario.upf.gtp_user ipOutInterface "\"\""
par DummyScenario.upf.gtp_user localPort 31
par DummyScenario.upf.gtp_user tunnelPeerPort 31
par DummyScenario.upf.gtp_user filter true
par DummyScenario.upf.tn typename "\"inet.common.MessageDispatcher\""
par DummyScenario.upf.tn displayStringTextFormat "\"processed %p pk (%l)\""
par DummyScenario.upf.at typename "\"inet.common.MessageDispatcher\""
par DummyScenario.upf.at displayStringTextFormat "\"processed %p pk (%l)\""
par DummyScenario.upf typename "\"simu5g.nodes.Upf\""
par DummyScenario.upf hasStatus false
par DummyScenario.upf osgModel "\"\""
par DummyScenario.upf osgModelColor "\"\""
par DummyScenario.upf canvasImage "\"\""
par DummyScenario.upf canvasImageColor "\"\""
par DummyScenario.upf recordPcap false
par DummyScenario.upf numPcapRecorders 0
par DummyScenario.upf numLoInterfaces 1
par DummyScenario.upf numWlanInterfaces 0
par DummyScenario.upf numEthInterfaces 0
par DummyScenario.upf numPppInterfaces 0
par DummyScenario.upf numTunInterfaces 0
par DummyScenario.upf numVirtInterfaces 0
par DummyScenario.upf hasIpv4 true
par DummyScenario.upf hasIpv6 false
par DummyScenario.upf hasGn false
par DummyScenario.upf forwarding true
par DummyScenario.upf multicastForwarding false
par DummyScenario.upf nodeType "\"UPF\""
par DummyScenario.gNodeB1.interfaceTable typename "\"inet.networklayer.common.InterfaceTable\""
par DummyScenario.gNodeB1.interfaceTable displayAddresses false
par DummyScenario.gNodeB1.mobility typename "\"inet.mobility.static.StationaryMobility\""
par DummyScenario.gNodeB1.mobility subjectModule "\"^\""
par DummyScenario.gNodeB1.mobility coordinateSystemModule "\"\""
par DummyScenario.gNodeB1.mobility displayStringTextFormat "\"p: %p\\nv: %v\""
par DummyScenario.gNodeB1.mobility updateDisplayString true
par DummyScenario.gNodeB1.mobility constraintAreaMinX "-inf m"
attr unit m
par DummyScenario.gNodeB1.mobility constraintAreaMinY "-inf m"
attr unit m
par DummyScenario.gNodeB1.mobility constraintAreaMinZ "-inf m"
attr unit m
par DummyScenario.gNodeB1.mobility constraintAreaMaxX "inf m"
attr unit m
par DummyScenario.gNodeB1.mobility constraintAreaMaxY "inf m"
attr unit m
par DummyScenario.gNodeB1.mobility constraintAreaMaxZ "inf m"
attr unit m
par DummyScenario.gNodeB1.mobility initialX "nan m"
attr unit m
par DummyScenario.gNodeB1.mobility initialY "nan m"
attr unit m
par DummyScenario.gNodeB1.mobility initialZ 0m
attr unit m
par DummyScenario.gNodeB1.mobility initialLatitude "nan deg"
attr unit deg
par DummyScenario.gNodeB1.mobility initialLongitude "nan deg"
attr unit deg
par DummyScenario.gNodeB1.mobility initialAltitude 0m
attr unit m
par DummyScenario.gNodeB1.mobility initialHeading 0deg
attr unit deg
par DummyScenario.gNodeB1.mobility initialElevation 0deg
attr unit deg
par DummyScenario.gNodeB1.mobility initialBank 0deg
attr unit deg
par DummyScenario.gNodeB1.mobility initFromDisplayString true
par DummyScenario.gNodeB1.mobility updateFromDisplayString true
par DummyScenario.gNodeB1.cellInfo typename "\"simu5g.common.cellInfo.CellInfo\""
par DummyScenario.gNodeB1.cellInfo constraintAreaMinX "-inf m"
attr unit m
par DummyScenario.gNodeB1.cellInfo constraintAreaMinY "-inf m"
attr unit m
par DummyScenario.gNodeB1.cellInfo constraintAreaMaxX "inf m"
attr unit m
par DummyScenario.gNodeB1.cellInfo constraintAreaMaxY "inf m"
attr unit m
par DummyScenario.gNodeB1.cellInfo speed 0mps
attr unit mps
par DummyScenario.gNodeB1.cellInfo positionUpdateInterval 0.001s
attr unit s
par DummyScenario.gNodeB1.cellInfo broadcastMessageInterval 1s
attr unit s
par DummyScenario.gNodeB1.cellInfo microCell false
par DummyScenario.gNodeB1.cellInfo numRus 0
par DummyScenario.gNodeB1.cellInfo ruRange 0
par DummyScenario.gNodeB1.cellInfo ruStartingAngle 0deg
attr unit deg
par DummyScenario.gNodeB1.cellInfo ruTxPower "\"0;\""
par DummyScenario.gNodeB1.cellInfo antennaCws "\"1;\""
par DummyScenario.gNodeB1.cellInfo rbyDl 12
par DummyScenario.gNodeB1.cellInfo rbyUl 12
par DummyScenario.gNodeB1.cellInfo rbxDl 7
par DummyScenario.gNodeB1.cellInfo rbxUl 7
par DummyScenario.gNodeB1.cellInfo rbPilotDl 3
par DummyScenario.gNodeB1.cellInfo rbPilotUl 0
par DummyScenario.gNodeB1.cellInfo signalDl 1
par DummyScenario.gNodeB1.cellInfo signalUl 1
par DummyScenario.gNodeB1.cellInfo numPreferredBands 1
par DummyScenario.gNodeB1.collector typename "\"simu5g.corenetwork.statsCollector.GNodeBStatsCollector\""
par DummyScenario.gNodeB1.collector collectorType "\"gNBStatsCollector\""
par DummyScenario.gNodeB1.collector movingAverage false
par DummyScenario.gNodeB1.collector prbUsagePeriods 15
par DummyScenario.gNodeB1.collector dataVolumePeriods 15
par DummyScenario.gNodeB1.collector activeUserPeriods 15
par DummyScenario.gNodeB1.collector discardRatePeriods 15
par DummyScenario.gNodeB1.collector tPutPeriods 15
par DummyScenario.gNodeB1.collector prbUsagePeriod 0.01s
attr unit s
par DummyScenario.gNodeB1.collector activeUserPeriod 0.1s
attr unit s
par DummyScenario.gNodeB1.collector dataVolumePeriod 0.5s
attr unit s
par DummyScenario.gNodeB1.collector delayPacketPeriod 0.05s
attr unit s
par DummyScenario.gNodeB1.collector discardRatePeriod 10s
attr unit s
par DummyScenario.gNodeB1.collector tPutPeriod 1s
attr unit s
par DummyScenario.gNodeB1.cellularNic.ip2nic.upperLayerOut.channel typename "\"ned.DelayChannel\""
par DummyScenario.gNodeB1.cellularNic.ip2nic.upperLayerOut.channel disabled false
par DummyScenario.gNodeB1.cellularNic.ip2nic.upperLayerOut.channel delay 0s
attr unit s
par DummyScenario.gNodeB1.cellularNic.upperLayerIn.channel typename "\"ned.DelayChannel\""
par DummyScenario.gNodeB1.cellularNic.upperLayerIn.channel disabled false
par DummyScenario.gNodeB1.cellularNic.upperLayerIn.channel delay 0s
attr unit s
par DummyScenario.gNodeB1.cellularNic.ip2nic typename "\"simu5g.stack.ip2nic.IP2Nic\""
par DummyScenario.gNodeB1.cellularNic.ip2nic nodeType "\"GNODEB\""
par DummyScenario.gNodeB1.cellularNic.ip2nic interfaceTableModule "\"DummyScenario.gNodeB1.interfaceTable\""
par DummyScenario.gNodeB1.cellularNic.ip2nic routingTableModule "\"^.ipv4.routingTable\""
par DummyScenario.gNodeB1.cellularNic.pdcpRrc typename "\"simu5g.stack.pdcp_rrc.NRPdcpRrcEnb\""
par DummyScenario.gNodeB1.cellularNic.pdcpRrc headerCompressedSize -1B
attr unit B
par DummyScenario.gNodeB1.cellularNic.pdcpRrc conversationalRlc 1
attr enum TM,UM,AM,UNKNOWN_RLC_TYPE
par DummyScenario.gNodeB1.cellularNic.pdcpRrc streamingRlc 1
attr enum TM,UM,AM,UNKNOWN_RLC_TYPE
par DummyScenario.gNodeB1.cellularNic.pdcpRrc interactiveRlc 1
attr enum TM,UM,AM,UNKNOWN_RLC_TYPE
par DummyScenario.gNodeB1.cellularNic.pdcpRrc backgroundRlc 1
attr enum TM,UM,AM,UNKNOWN_RLC_TYPE
par DummyScenario.gNodeB1.cellularNic.rlc.tm typename "\"simu5g.stack.rlc.LteRlcTm\""
par DummyScenario.gNodeB1.cellularNic.rlc.tm queueSize 2097152B
attr unit B
par DummyScenario.gNodeB1.cellularNic.rlc.um typename "\"simu5g.stack.rlc.LteRlcUmD2D\""
par DummyScenario.gNodeB1.cellularNic.rlc.um queueSize 2097152B
attr unit B
par DummyScenario.gNodeB1.cellularNic.rlc.um mapAllLcidsToSingleBearer false
par DummyScenario.gNodeB1.cellularNic.rlc.am typename "\"simu5g.stack.rlc.LteRlcAm\""
par DummyScenario.gNodeB1.cellularNic.rlc.mux typename "\"simu5g.stack.rlc.LteRlcMux\""
par DummyScenario.gNodeB1.cellularNic.rlc typename "\"simu5g.stack.rlc.LteRlc\""
par DummyScenario.gNodeB1.cellularNic.rlc LteRlcUmType "\"LteRlcUm\""
par DummyScenario.gNodeB1.cellularNic.rlc d2dCapable true
par DummyScenario.gNodeB1.cellularNic.rlc umType "\"LteRlcUmD2D\""
par DummyScenario.gNodeB1.cellularNic.mac typename "\"simu5g.stack.mac.NRMacGnb\""
par DummyScenario.gNodeB1.cellularNic.mac interfaceTableModule "\"DummyScenario.gNodeB1.interfaceTable\""
par DummyScenario.gNodeB1.cellularNic.mac queueSize 2097152B
attr unit B
par DummyScenario.gNodeB1.cellularNic.mac muMimo true
par DummyScenario.gNodeB1.cellularNic.mac harqProcesses 8
par DummyScenario.gNodeB1.cellularNic.mac maxHarqRtx 3
par DummyScenario.gNodeB1.cellularNic.mac harqFbEvaluationTimer 4
par DummyScenario.gNodeB1.cellularNic.mac statDisplay false
par DummyScenario.gNodeB1.cellularNic.mac amcType "\"NRAmc\""
par DummyScenario.gNodeB1.cellularNic.mac amcMode "\"AUTO\""
par DummyScenario.gNodeB1.cellularNic.mac muMimoMinDistance 50
par DummyScenario.gNodeB1.cellularNic.mac rbAllocationType "\"localized\""
par DummyScenario.gNodeB1.cellularNic.mac summaryLowerBound 0.005s
attr unit s
par DummyScenario.gNodeB1.cellularNic.mac summaryUpperBound 0.02s
attr unit s
par DummyScenario.gNodeB1.cellularNic.mac fbhbCapacityDl 5
par DummyScenario.gNodeB1.cellularNic.mac fbhbCapacityUl 5
par DummyScenario.gNodeB1.cellularNic.mac fbhbCapacityD2D 5
par DummyScenario.gNodeB1.cellularNic.mac pmiWeight 0
par DummyScenario.gNodeB1.cellularNic.mac cqiWeight 0
par DummyScenario.gNodeB1.cellularNic.mac kCqi 0
par DummyScenario.gNodeB1.cellularNic.mac eNodeBCount 0
par DummyScenario.gNodeB1.cellularNic.mac schedulingDisciplineDl "\"MAXCI\""
par DummyScenario.gNodeB1.cellularNic.mac schedulingDisciplineUl "\"MAXCI\""
par DummyScenario.gNodeB1.cellularNic.mac grantTypeConversationalDl "\"FITALL\""
par DummyScenario.gNodeB1.cellularNic.mac grantTypeStreamingDl "\"FITALL\""
par DummyScenario.gNodeB1.cellularNic.mac grantTypeInteractiveDl "\"FITALL\""
par DummyScenario.gNodeB1.cellularNic.mac grantTypeBackgroundDl "\"FITALL\""
par DummyScenario.gNodeB1.cellularNic.mac grantSizeConversationalDl -1
par DummyScenario.gNodeB1.cellularNic.mac grantSizeStreamingDl -1
par DummyScenario.gNodeB1.cellularNic.mac grantSizeInteractiveDl -1
par DummyScenario.gNodeB1.cellularNic.mac grantSizeBackgroundDl -1
par DummyScenario.gNodeB1.cellularNic.mac grantTypeConversationalUl "\"FITALL\""
par DummyScenario.gNodeB1.cellularNic.mac grantTypeStreamingUl "\"FITALL\""
par DummyScenario.gNodeB1.cellularNic.mac grantTypeInteractiveUl "\"FITALL\""
par DummyScenario.gNodeB1.cellularNic.mac grantTypeBackgroundUl "\"FITALL\""
par DummyScenario.gNodeB1.cellularNic.mac grantSizeConversationalUl -1
par DummyScenario.gNodeB1.cellularNic.mac grantSizeStreamingUl -1
par DummyScenario.gNodeB1.cellularNic.mac grantSizeInteractiveUl -1
par DummyScenario.gNodeB1.cellularNic.mac grantSizeBackgroundUl -1
par DummyScenario.gNodeB1.cellularNic.mac pfAlpha 0.95
par DummyScenario.gNodeB1.cellularNic.mac lteAallocationRbsDl 1
par DummyScenario.gNodeB1.cellularNic.mac lteAhistorySizeDL 20
par DummyScenario.gNodeB1.cellularNic.mac lteAgainHistoryThCONVERSATIONALDL 15
par DummyScenario.gNodeB1.cellularNic.mac lteAgainHistoryThSTREAMINGDL 15
par DummyScenario.gNodeB1.cellularNic.mac lteAgainHistoryThINTERACTIVEDL 15
par DummyScenario.gNodeB1.cellularNic.mac lteAgainHistoryThBACKGROUNDDL 15
par DummyScenario.gNodeB1.cellularNic.mac lteAallocationRbsUl 1
par DummyScenario.gNodeB1.cellularNic.mac lteAhistorySizeUL 20
par DummyScenario.gNodeB1.cellularNic.mac lteAgainHistoryThUL 5
par DummyScenario.gNodeB1.cellularNic.mac lteAdeadlineCONVERSATIONALDL 0.2s
attr unit s
par DummyScenario.gNodeB1.cellularNic.mac lteAdeadlineSTREAMINGDL 1s
attr unit s
par DummyScenario.gNodeB1.cellularNic.mac lteAdeadlineINTERACTIVEDL 0.05s
attr unit s
par DummyScenario.gNodeB1.cellularNic.mac lteAdeadlineBACKGROUNDDL -0.001s
attr unit s
par DummyScenario.gNodeB1.cellularNic.mac lteAslackTermCONVERSATIONALDL 0.05s
attr unit s
par DummyScenario.gNodeB1.cellularNic.mac lteAslackTermSTREAMINGDL 0.1s
attr unit s
par DummyScenario.gNodeB1.cellularNic.mac lteAslackTermINTERACTIVEDL 0.01s
attr unit s
par DummyScenario.gNodeB1.cellularNic.mac lteAslackTermBACKGROUNDDL 0s
attr unit s
par DummyScenario.gNodeB1.cellularNic.mac lteAmaxUrgentBurstCONVERSATIONALDL 0byte
attr unit byte
par DummyScenario.gNodeB1.cellularNic.mac lteAmaxUrgentBurstSTREAMINGDL 0byte
attr unit byte
par DummyScenario.gNodeB1.cellularNic.mac lteAmaxUrgentBurstINTERACTIVEDL 0byte
attr unit byte
par DummyScenario.gNodeB1.cellularNic.mac lteAmaxUrgentBurstBACKGROUNDDL 200byte
attr unit byte
par DummyScenario.gNodeB1.cellularNic.mac lteAmaxFairnessBurstCONVERSATIONALDL 0byte
attr unit byte
par DummyScenario.gNodeB1.cellularNic.mac lteAmaxFairnessBurstSTREAMINGDL 0byte
attr unit byte
par DummyScenario.gNodeB1.cellularNic.mac lteAmaxFairnessBurstINTERACTIVEDL 0byte
attr unit byte
par DummyScenario.gNodeB1.cellularNic.mac lteAmaxFairnessBurstBACKGROUNDDL 200byte
attr unit byte
par DummyScenario.gNodeB1.cellularNic.mac lteAdeadlineCONVERSATIONALUL 0.25s
attr unit s
par DummyScenario.gNodeB1.cellularNic.mac lteAdeadlineSTREAMINGUL 1.5s
attr unit s
par DummyScenario.gNodeB1.cellularNic.mac lteAdeadlineINTERACTIVEUL 2.5s
attr unit s
par DummyScenario.gNodeB1.cellularNic.mac lteAdeadlineBACKGROUNDUL 0.25s
attr unit s
par DummyScenario.gNodeB1.cellularNic.mac lteAslackTermCONVERSATIONALUL 0.05s
attr unit s
par DummyScenario.gNodeB1.cellularNic.mac lteAslackTermSTREAMINGUL 0.5s
attr unit s
par DummyScenario.gNodeB1.cellularNic.mac lteAslackTermINTERACTIVEUL 0.5s
attr unit s
par DummyScenario.gNodeB1.cellularNic.mac lteAslackTermBACKGROUNDUL 0s
attr unit s
par DummyScenario.gNodeB1.cellularNic.mac lteAmaxBurstCONVERSATIONALUL 0byte
attr unit byte
par DummyScenario.gNodeB1.cellularNic.mac lteAmaxBurstSTREAMINGUL 0byte
attr unit byte
par DummyScenario.gNodeB1.cellularNic.mac lteAmaxBurstINTERACTIVEUL 0byte
attr unit byte
par DummyScenario.gNodeB1.cellularNic.mac lteAmaxBurstBACKGROUNDUL 0byte
attr unit byte
par DummyScenario.gNodeB1.cellularNic.mac pfTmsAwareDL false
par DummyScenario.gNodeB1.cellularNic.mac pfTmsAwareUL false
par DummyScenario.gNodeB1.cellularNic.mac zeroLevelMBSFNDL 260W
attr unit W
par DummyScenario.gNodeB1.cellularNic.mac zeroLevelMBSFNUL 260W
attr unit W
par DummyScenario.gNodeB1.cellularNic.mac idleLevelMBSFNDL 150W
attr unit W
par DummyScenario.gNodeB1.cellularNic.mac idleLevelMBSFNUL 150W
attr unit W
par DummyScenario.gNodeB1.cellularNic.mac powerUnitMBSFNDL 3.76W
attr unit W
par DummyScenario.gNodeB1.cellularNic.mac powerUnitMBSFNUL 3.76W
attr unit W
par DummyScenario.gNodeB1.cellularNic.mac maxPowerMBSFNDL 448W
attr unit W
par DummyScenario.gNodeB1.cellularNic.mac maxPowerMBSFNUL 448W
attr unit W
par DummyScenario.gNodeB1.cellularNic.mac zeroLevelPAGINGDL 260W
attr unit W
par DummyScenario.gNodeB1.cellularNic.mac zeroLevelPAGINGUL 260W
attr unit W
par DummyScenario.gNodeB1.cellularNic.mac idleLevelPAGINGDL 150W
attr unit W
par DummyScenario.gNodeB1.cellularNic.mac idleLevelPAGINGUL 150W
attr unit W
par DummyScenario.gNodeB1.cellularNic.mac powerUnitPAGINGDL 3.76W
attr unit W
par DummyScenario.gNodeB1.cellularNic.mac powerUnitPAGINGUL 3.76W
attr unit W
par DummyScenario.gNodeB1.cellularNic.mac maxPowerPAGINGDL 448W
attr unit W
par DummyScenario.gNodeB1.cellularNic.mac maxPowerPAGINGUL 448W
attr unit W
par DummyScenario.gNodeB1.cellularNic.mac zeroLevelNORMAL_FRAME_TYPEDL 260W
attr unit W
par DummyScenario.gNodeB1.cellularNic.mac zeroLevelNORMAL_FRAME_TYPEUL 260W
attr unit W
par DummyScenario.gNodeB1.cellularNic.mac idleLevelNORMAL_FRAME_TYPEDL 150W
attr unit W
par DummyScenario.gNodeB1.cellularNic.mac idleLevelNORMAL_FRAME_TYPEUL 150W
attr unit W
par DummyScenario.gNodeB1.cellularNic.mac powerUnitNORMAL_FRAME_TYPEDL 3.76W
attr unit W
par DummyScenario.gNodeB1.cellularNic.mac powerUnitNORMAL_FRAME_TYPEUL 3.76W
attr unit W
par DummyScenario.gNodeB1.cellularNic.mac maxPowerNORMAL_FRAME_TYPEDL 448W
attr unit W
par DummyScenario.gNodeB1.cellularNic.mac maxPowerNORMAL_FRAME_TYPEUL 448W
attr unit W
par DummyScenario.gNodeB1.cellularNic.mac zeroLevelBROADCASTDL 260W
attr unit W
par DummyScenario.gNodeB1.cellularNic.mac zeroLevelBROADCASTUL 260W
attr unit W
par DummyScenario.gNodeB1.cellularNic.mac idleLevelBROADCASTDL 150W
attr unit W
par DummyScenario.gNodeB1.cellularNic.mac idleLevelBROADCASTUL 150W
attr unit W
par DummyScenario.gNodeB1.cellularNic.mac powerUnitBROADCASTDL 3.76W
attr unit W
par DummyScenario.gNodeB1.cellularNic.mac powerUnitBROADCASTUL 3.76W
attr unit W
par DummyScenario.gNodeB1.cellularNic.mac maxPowerBROADCASTDL 448W
attr unit W
par DummyScenario.gNodeB1.cellularNic.mac maxPowerBROADCASTUL 448W
attr unit W
par DummyScenario.gNodeB1.cellularNic.mac zeroLevelSYNCRODL 260W
attr unit W
par DummyScenario.gNodeB1.cellularNic.mac zeroLevelSYNCROUL 260W
attr unit W
par DummyScenario.gNodeB1.cellularNic.mac idleLevelSYNCRODL 150W
attr unit W
par DummyScenario.gNodeB1.cellularNic.mac idleLevelSYNCROUL 150W
attr unit W
par DummyScenario.gNodeB1.cellularNic.mac powerUnitSYNCRODL 3.76W
attr unit W
par DummyScenario.gNodeB1.cellularNic.mac powerUnitSYNCROUL 3.76W
attr unit W
par DummyScenario.gNodeB1.cellularNic.mac maxPowerSYNCRODL 448W
attr unit W
par DummyScenario.gNodeB1.cellularNic.mac maxPowerSYNCROUL 448W
attr unit W
par DummyScenario.gNodeB1.cellularNic.mac prfFixedSYNCRO 5.543W
attr unit W
par DummyScenario.gNodeB1.cellularNic.mac prfRBSYNCRO 0.689W
attr unit W
par DummyScenario.gNodeB1.cellularNic.mac prfFixedMBSFN 4.4444W
attr unit W
par DummyScenario.gNodeB1.cellularNic.mac prfRBMBSFN 0.711W
attr unit W
par DummyScenario.gNodeB1.cellularNic.mac prfFixedNORMAL_FRAME_TYPE 3.81W
attr unit W
par DummyScenario.gNodeB1.cellularNic.mac prfRBNORMAL_FRAME_TYPE 0.724W
attr unit W
par DummyScenario.gNodeB1.cellularNic.mac prfFixedPAGING 3.81W
attr unit W
par DummyScenario.gNodeB1.cellularNic.mac prfRBPAGING 0.724W
attr unit W
par DummyScenario.gNodeB1.cellularNic.mac prfFixedBROADCAST 4.4W
attr unit W
par DummyScenario.gNodeB1.cellularNic.mac prfRBBROADCAST 0.712W
attr unit W
par DummyScenario.gNodeB1.cellularNic.mac pilotMode "\"ROBUST_CQI\""
par DummyScenario.gNodeB1.cellularNic.mac usePreconfiguredTxParams false
par DummyScenario.gNodeB1.cellularNic.mac d2dCqi 7
par DummyScenario.gNodeB1.cellularNic.mac reuseD2D false
par DummyScenario.gNodeB1.cellularNic.mac reuseD2DMulti false
par DummyScenario.gNodeB1.cellularNic.mac conflictGraphUpdatePeriod 1s
attr unit s
par DummyScenario.gNodeB1.cellularNic.mac conflictGraphThreshold 90
par DummyScenario.gNodeB1.cellularNic.mac conflictGraphD2DInterferenceRadius -1m
attr unit m
par DummyScenario.gNodeB1.cellularNic.mac conflictGraphD2DMultiTxRadius -1m
attr unit m
par DummyScenario.gNodeB1.cellularNic.mac conflictGraphD2DMultiInterferenceRadius -1m
attr unit m
par DummyScenario.gNodeB1.cellularNic.mac msHarqInterrupt true
par DummyScenario.gNodeB1.cellularNic.mac msClearRlcBuffer true
par DummyScenario.gNodeB1.cellularNic.phy typename "\"simu5g.stack.phy.LtePhyEnbD2D\""
par DummyScenario.gNodeB1.cellularNic.phy ueTxPower 26
par DummyScenario.gNodeB1.cellularNic.phy eNodeBTxPower 46
par DummyScenario.gNodeB1.cellularNic.phy microTxPower 30
par DummyScenario.gNodeB1.cellularNic.phy txDirection "\"OMNI\""
par DummyScenario.gNodeB1.cellularNic.phy txAngle 0
par DummyScenario.gNodeB1.cellularNic.phy dynamicCellAssociation false
par DummyScenario.gNodeB1.cellularNic.phy enableHandover true
par DummyScenario.gNodeB1.cellularNic.phy handoverLatency 0.05s
attr unit s
par DummyScenario.gNodeB1.cellularNic.phy enableMulticastD2DRangeCheck false
par DummyScenario.gNodeB1.cellularNic.phy multicastD2DRange 1000m
attr unit m
par DummyScenario.gNodeB1.cellularNic.phy targetBler 0.01
par DummyScenario.gNodeB1.cellularNic.phy lambdaMinTh 0.02
par DummyScenario.gNodeB1.cellularNic.phy lambdaMaxTh 0.2
par DummyScenario.gNodeB1.cellularNic.phy lambdaRatioTh 20
par DummyScenario.gNodeB1.cellularNic.phy enableD2DCqiReporting true
par DummyScenario.gNodeB1.cellularNic.channelModel[0] typename "\"simu5g.stack.phy.ChannelModel.NRChannelModel_3GPP38_901\""
par DummyScenario.gNodeB1.cellularNic.channelModel[0] componentCarrierIndex 0
par DummyScenario.gNodeB1.cellularNic.channelModel[0] shadowing true
par DummyScenario.gNodeB1.cellularNic.channelModel[0] scenario "\"URBAN_MACROCELL\""
par DummyScenario.gNodeB1.cellularNic.channelModel[0] nodeb_height 25
par DummyScenario.gNodeB1.cellularNic.channelModel[0] building_height 20
par DummyScenario.gNodeB1.cellularNic.channelModel[0] inside_building false
par DummyScenario.gNodeB1.cellularNic.channelModel[0] street_wide 20
par DummyScenario.gNodeB1.cellularNic.channelModel[0] ue_height 1.5
par DummyScenario.gNodeB1.cellularNic.channelModel[0] tolerateMaxDistViolation false
par DummyScenario.gNodeB1.cellularNic.channelModel[0] useTorus false
par DummyScenario.gNodeB1.cellularNic.channelModel[0] correlation_distance 50
par DummyScenario.gNodeB1.cellularNic.channelModel[0] targetBler 0.01
par DummyScenario.gNodeB1.cellularNic.channelModel[0] harqReduction 0.2
par DummyScenario.gNodeB1.cellularNic.channelModel[0] lambdaMinTh 0.02
par DummyScenario.gNodeB1.cellularNic.channelModel[0] lambdaMaxTh 0.2
par DummyScenario.gNodeB1.cellularNic.channelModel[0] lambdaRatioTh 20
par DummyScenario.gNodeB1.cellularNic.channelModel[0] antennaGainUe 0
par DummyScenario.gNodeB1.cellularNic.channelModel[0] antennGainEnB 18
par DummyScenario.gNodeB1.cellularNic.channelModel[0] antennGainMicro 5
par DummyScenario.gNodeB1.cellularNic.channelModel[0] thermalNoise -104.5
par DummyScenario.gNodeB1.cellularNic.channelModel[0] ue_noise_figure 7
par DummyScenario.gNodeB1.cellularNic.channelModel[0] bs_noise_figure 5
par DummyScenario.gNodeB1.cellularNic.channelModel[0] cable_loss 2
par DummyScenario.gNodeB1.cellularNic.channelModel[0] dynamic_los false
par DummyScenario.gNodeB1.cellularNic.channelModel[0] fixed_los false
par DummyScenario.gNodeB1.cellularNic.channelModel[0] fading true
par DummyScenario.gNodeB1.cellularNic.channelModel[0] fading_type "\"JAKES\""
par DummyScenario.gNodeB1.cellularNic.channelModel[0] fading_paths 6
par DummyScenario.gNodeB1.cellularNic.channelModel[0] delay_rms 3.63e-07
par DummyScenario.gNodeB1.cellularNic.channelModel[0] bgCell_interference true
par DummyScenario.gNodeB1.cellularNic.channelModel[0] extCell_interference true
par DummyScenario.gNodeB1.cellularNic.channelModel[0] downlink_interference false
par DummyScenario.gNodeB1.cellularNic.channelModel[0] uplink_interference false
par DummyScenario.gNodeB1.cellularNic.channelModel[0] d2d_interference true
par DummyScenario.gNodeB1.cellularNic.channelModel[0] enable_extCell_los true
par DummyScenario.gNodeB1.cellularNic.channelModel[0] useRsrqFromLog false
par DummyScenario.gNodeB1.cellularNic.channelModel[0] rsrqShift 22
par DummyScenario.gNodeB1.cellularNic.channelModel[0] rsrqScale 1
par DummyScenario.gNodeB1.cellularNic.channelModel[0] collectSinrStatistics true
par DummyScenario.gNodeB1.cellularNic.channelModel[0] useBuildingPenetrationLossHighLossModel false
par DummyScenario.gNodeB1.cellularNic.packetFlowManager typename "\"simu5g.stack.packetFlowManager.NRPacketFlowManagerGnb\""
par DummyScenario.gNodeB1.cellularNic.packetFlowManager pfmType "\"NRPacketFlowManagerGnb\""
par DummyScenario.gNodeB1.cellularNic.x2Manager typename "\"simu5g.x2.LteX2Manager\""
par DummyScenario.gNodeB1.cellularNic.handoverManager typename "\"simu5g.stack.handoverManager.LteHandoverManager\""
par DummyScenario.gNodeB1.cellularNic.handoverManager losslessHandover false
par DummyScenario.gNodeB1.cellularNic.bgTrafficGenerator[0].manager typename "\"simu5g.stack.backgroundTrafficGenerator.BackgroundTrafficManager\""
par DummyScenario.gNodeB1.cellularNic.bgTrafficGenerator[0] typename "\"simu5g.stack.backgroundTrafficGenerator.BackgroundTrafficGenerator\""
par DummyScenario.gNodeB1.cellularNic.bgTrafficGenerator[0] numBgUes 0
par DummyScenario.gNodeB1.cellularNic.bgTrafficGenerator[0] bgTrafficManagerType "\"BackgroundTrafficManager\""
par DummyScenario.gNodeB1.cellularNic.bgTrafficGenerator[0] enablePeriodicCqiUpdate true
par DummyScenario.gNodeB1.cellularNic.bgTrafficGenerator[0] useProbabilisticCqi false
par DummyScenario.gNodeB1.cellularNic.bgTrafficGenerator[0] computeAvgInterference false
par DummyScenario.gNodeB1.cellularNic.d2dModeSelection typename "\"simu5g.stack.d2dModeSelection.D2DModeSelectionBase\""
par DummyScenario.gNodeB1.cellularNic.d2dModeSelection modeSelectionPeriod 1s
attr unit s
par DummyScenario.gNodeB1.cellularNic typename "\"simu5g.stack.NRNicEnb\""
par DummyScenario.gNodeB1.cellularNic displayStringTextFormat "\"%a (%i)\\n%m\""
par DummyScenario.gNodeB1.cellularNic recordPcap false
par DummyScenario.gNodeB1.cellularNic numPcapRecorders 0
par DummyScenario.gNodeB1.cellularNic interfaceTableModule "\"DummyScenario.gNodeB1.interfaceTable\""
par DummyScenario.gNodeB1.cellularNic routingTableModule "\"^.ipv4.routingTable\""
par DummyScenario.gNodeB1.cellularNic LtePdcpRrcType "\"NRPdcpRrcEnb\""
par DummyScenario.gNodeB1.cellularNic LteMacType "\"NRMacGnb\""
par DummyScenario.gNodeB1.cellularNic PacketFlowManagerType "\"NRPacketFlowManagerGnb\""
par DummyScenario.gNodeB1.cellularNic hasRNISupport true
par DummyScenario.gNodeB1.cellularNic LtePhyType "\"LtePhyEnbD2D\""
par DummyScenario.gNodeB1.cellularNic nodeType "\"GNODEB\""
par DummyScenario.gNodeB1.cellularNic processingDelayIn 0s
attr unit s
par DummyScenario.gNodeB1.cellularNic processingDelayOut 0s
attr unit s
par DummyScenario.gNodeB1.cellularNic LteChannelModelType "\"NRChannelModel_3GPP38_901\""
par DummyScenario.gNodeB1.cellularNic d2dCapable true
par DummyScenario.gNodeB1.cellularNic dualConnectivityEnabled false
par DummyScenario.gNodeB1.cellularNic numCarriers 1
par DummyScenario.gNodeB1.cellularNic address "\"0A-AA-00-00-00-01\""
par DummyScenario.gNodeB1.cellularNic compEnabled false
par DummyScenario.gNodeB1.cellularNic LteCompManagerType "\"LteCompManagerProportional\""
par DummyScenario.gNodeB1.cellularNic d2dModeSelectionType "\"D2DModeSelectionBase\""
par DummyScenario.gNodeB1.pppIf.upperLayerIn.channel typename "\"ned.IdealChannel\""
par DummyScenario.gNodeB1.pppIf.phys$i.channel typename "\"ned.IdealChannel\""
par DummyScenario.gNodeB1.pppIf.ppp.phys$o.channel typename "\"ned.IdealChannel\""
par DummyScenario.gNodeB1.pppIf.ppp.upperLayerOut.channel typename "\"ned.IdealChannel\""
par DummyScenario.gNodeB1.pppIf.ppp.queue typename "\"inet.queueing.queue.DropTailQueue\""
par DummyScenario.gNodeB1.pppIf.ppp.queue displayStringTextFormat "\"contains %p pk (%l) pushed %u\\npulled %o removed %r dropped %d\""
par DummyScenario.gNodeB1.pppIf.ppp.queue packetCapacity 10000
par DummyScenario.gNodeB1.pppIf.ppp.queue dataCapacity -1b
attr unit b
par DummyScenario.gNodeB1.pppIf.ppp.queue dropperClass "\"inet::queueing::PacketAtCollectionEndDropper\""
par DummyScenario.gNodeB1.pppIf.ppp.queue comparatorClass "\"\""
par DummyScenario.gNodeB1.pppIf.ppp.queue bufferModule "\"\""
par DummyScenario.gNodeB1.pppIf.ppp typename "\"inet.linklayer.ppp.Ppp\""
par DummyScenario.gNodeB1.pppIf.ppp interfaceTableModule "\"DummyScenario.gNodeB1.interfaceTable\""
par DummyScenario.gNodeB1.pppIf.ppp displayStringTextFormat "\"rate: %b\\nsent: %s, rcvd: %r\\nqueue: %q, drop: %d\""
par DummyScenario.gNodeB1.pppIf.ppp sendRawBytes false
par DummyScenario.gNodeB1.pppIf.ppp mtu 4470B
attr unit B
par DummyScenario.gNodeB1.pppIf.ppp stopOperationExtraTime -1s
attr unit s
par DummyScenario.gNodeB1.pppIf.ppp stopOperationTimeout 2s
attr unit s
par DummyScenario.gNodeB1.pppIf typename "\"inet.linklayer.ppp.PppInterface\""
par DummyScenario.gNodeB1.pppIf displayStringTextFormat "\"%a (%i)\\n%m\""
par DummyScenario.gNodeB1.pppIf recordPcap false
par DummyScenario.gNodeB1.pppIf numPcapRecorders 0
par DummyScenario.gNodeB1.pppIf interfaceTableModule "\"DummyScenario.gNodeB1.interfaceTable\""
par DummyScenario.gNodeB1.x2ppp[0].upperLayerIn.channel typename "\"ned.IdealChannel\""
par DummyScenario.gNodeB1.x2ppp[0].phys$i.channel typename "\"ned.IdealChannel\""
par DummyScenario.gNodeB1.x2ppp[0].ppp.phys$o.channel typename "\"ned.IdealChannel\""
par DummyScenario.gNodeB1.x2ppp[0].ppp.upperLayerOut.channel typename "\"ned.IdealChannel\""
par DummyScenario.gNodeB1.x2ppp[0].ppp.queue typename "\"inet.queueing.queue.DropTailQueue\""
par DummyScenario.gNodeB1.x2ppp[0].ppp.queue displayStringTextFormat "\"contains %p pk (%l) pushed %u\\npulled %o removed %r dropped %d\""
par DummyScenario.gNodeB1.x2ppp[0].ppp.queue packetCapacity 10000
par DummyScenario.gNodeB1.x2ppp[0].ppp.queue dataCapacity -1b
attr unit b
par DummyScenario.gNodeB1.x2ppp[0].ppp.queue dropperClass "\"inet::queueing::PacketAtCollectionEndDropper\""
par DummyScenario.gNodeB1.x2ppp[0].ppp.queue comparatorClass "\"\""
par DummyScenario.gNodeB1.x2ppp[0].ppp.queue bufferModule "\"\""
par DummyScenario.gNodeB1.x2ppp[0].ppp typename "\"inet.linklayer.ppp.Ppp\""
par DummyScenario.gNodeB1.x2ppp[0].ppp interfaceTableModule "\"DummyScenario.gNodeB1.interfaceTable\""
par DummyScenario.gNodeB1.x2ppp[0].ppp displayStringTextFormat "\"rate: %b\\nsent: %s, rcvd: %r\\nqueue: %q, drop: %d\""
par DummyScenario.gNodeB1.x2ppp[0].ppp sendRawBytes false
par DummyScenario.gNodeB1.x2ppp[0].ppp mtu 4470B
attr unit B
par DummyScenario.gNodeB1.x2ppp[0].ppp stopOperationExtraTime -1s
attr unit s
par DummyScenario.gNodeB1.x2ppp[0].ppp stopOperationTimeout 2s
attr unit s
par DummyScenario.gNodeB1.x2ppp[0] typename "\"inet.linklayer.ppp.PppInterface\""
par DummyScenario.gNodeB1.x2ppp[0] displayStringTextFormat "\"%a (%i)\\n%m\""
par DummyScenario.gNodeB1.x2ppp[0] recordPcap false
par DummyScenario.gNodeB1.x2ppp[0] numPcapRecorders 0
par DummyScenario.gNodeB1.x2ppp[0] interfaceTableModule "\"DummyScenario.gNodeB1.interfaceTable\""
par DummyScenario.gNodeB1.x2ppp[1].upperLayerIn.channel typename "\"ned.IdealChannel\""
par DummyScenario.gNodeB1.x2ppp[1].phys$i.channel typename "\"ned.IdealChannel\""
par DummyScenario.gNodeB1.x2ppp[1].ppp.phys$o.channel typename "\"ned.IdealChannel\""
par DummyScenario.gNodeB1.x2ppp[1].ppp.upperLayerOut.channel typename "\"ned.IdealChannel\""
par DummyScenario.gNodeB1.x2ppp[1].ppp.queue typename "\"inet.queueing.queue.DropTailQueue\""
par DummyScenario.gNodeB1.x2ppp[1].ppp.queue displayStringTextFormat "\"contains %p pk (%l) pushed %u\\npulled %o removed %r dropped %d\""
par DummyScenario.gNodeB1.x2ppp[1].ppp.queue packetCapacity 10000
par DummyScenario.gNodeB1.x2ppp[1].ppp.queue dataCapacity -1b
attr unit b
par DummyScenario.gNodeB1.x2ppp[1].ppp.queue dropperClass "\"inet::queueing::PacketAtCollectionEndDropper\""
par DummyScenario.gNodeB1.x2ppp[1].ppp.queue comparatorClass "\"\""
par DummyScenario.gNodeB1.x2ppp[1].ppp.queue bufferModule "\"\""
par DummyScenario.gNodeB1.x2ppp[1].ppp typename "\"inet.linklayer.ppp.Ppp\""
par DummyScenario.gNodeB1.x2ppp[1].ppp interfaceTableModule "\"DummyScenario.gNodeB1.interfaceTable\""
par DummyScenario.gNodeB1.x2ppp[1].ppp displayStringTextFormat "\"rate: %b\\nsent: %s, rcvd: %r\\nqueue: %q, drop: %d\""
par DummyScenario.gNodeB1.x2ppp[1].ppp sendRawBytes false
par DummyScenario.gNodeB1.x2ppp[1].ppp mtu 4470B
attr unit B
par DummyScenario.gNodeB1.x2ppp[1].ppp stopOperationExtraTime -1s
attr unit s
par DummyScenario.gNodeB1.x2ppp[1].ppp stopOperationTimeout 2s
attr unit s
par DummyScenario.gNodeB1.x2ppp[1] typename "\"inet.linklayer.ppp.PppInterface\""
par DummyScenario.gNodeB1.x2ppp[1] displayStringTextFormat "\"%a (%i)\\n%m\""
par DummyScenario.gNodeB1.x2ppp[1] recordPcap false
par DummyScenario.gNodeB1.x2ppp[1] numPcapRecorders 0
par DummyScenario.gNodeB1.x2ppp[1] interfaceTableModule "\"DummyScenario.gNodeB1.interfaceTable\""
par DummyScenario.gNodeB1.pppMEHostIf.upperLayerIn.channel typename "\"ned.IdealChannel\""
par DummyScenario.gNodeB1.pppMEHostIf.phys$i.channel typename "\"ned.IdealChannel\""
par DummyScenario.gNodeB1.pppMEHostIf.ppp.phys$o.channel typename "\"ned.IdealChannel\""
par DummyScenario.gNodeB1.pppMEHostIf.ppp.upperLayerOut.channel typename "\"ned.IdealChannel\""
par DummyScenario.gNodeB1.pppMEHostIf.ppp.queue typename "\"inet.queueing.queue.DropTailQueue\""
par DummyScenario.gNodeB1.pppMEHostIf.ppp.queue displayStringTextFormat "\"contains %p pk (%l) pushed %u\\npulled %o removed %r dropped %d\""
par DummyScenario.gNodeB1.pppMEHostIf.ppp.queue packetCapacity 10000
par DummyScenario.gNodeB1.pppMEHostIf.ppp.queue dataCapacity -1b
attr unit b
par DummyScenario.gNodeB1.pppMEHostIf.ppp.queue dropperClass "\"inet::queueing::PacketAtCollectionEndDropper\""
par DummyScenario.gNodeB1.pppMEHostIf.ppp.queue comparatorClass "\"\""
par DummyScenario.gNodeB1.pppMEHostIf.ppp.queue bufferModule "\"\""
par DummyScenario.gNodeB1.pppMEHostIf.ppp typename "\"inet.linklayer.ppp.Ppp\""
par DummyScenario.gNodeB1.pppMEHostIf.ppp interfaceTableModule "\"DummyScenario.gNodeB1.interfaceTable\""
par DummyScenario.gNodeB1.pppMEHostIf.ppp displayStringTextFormat "\"rate: %b\\nsent: %s, rcvd: %r\\nqueue: %q, drop: %d\""
par DummyScenario.gNodeB1.pppMEHostIf.ppp sendRawBytes false
par DummyScenario.gNodeB1.pppMEHostIf.ppp mtu 4470B
attr unit B
par DummyScenario.gNodeB1.pppMEHostIf.ppp stopOperationExtraTime -1s
attr unit s
par DummyScenario.gNodeB1.pppMEHostIf.ppp stopOperationTimeout 2s
attr unit s
par DummyScenario.gNodeB1.pppMEHostIf typename "\"inet.linklayer.ppp.PppInterface\""
par DummyScenario.gNodeB1.pppMEHostIf displayStringTextFormat "\"%a (%i)\\n%m\""
par DummyScenario.gNodeB1.pppMEHostIf recordPcap false
par DummyScenario.gNodeB1.pppMEHostIf numPcapRecorders 0
par DummyScenario.gNodeB1.pppMEHostIf interfaceTableModule "\"DummyScenario.gNodeB1.interfaceTable\""
par DummyScenario.gNodeB1.ipv4.transportIn.channel typename "\"ned.IdealChannel\""
par DummyScenario.gNodeB1.ipv4.up.out[0].channel typename "\"ned.IdealChannel\""
par DummyScenario.gNodeB1.ipv4.lp.out[2].channel typename "\"ned.IdealChannel\""
par DummyScenario.gNodeB1.ipv4.ifIn.channel typename "\"ned.IdealChannel\""
par DummyScenario.gNodeB1.ipv4.configurator typename "\"inet.networklayer.configurator.ipv4.Ipv4NodeConfigurator\""
par DummyScenario.gNodeB1.ipv4.configurator interfaceTableModule "\"DummyScenario.gNodeB1.interfaceTable\""
par DummyScenario.gNodeB1.ipv4.configurator routingTableModule "\"DummyScenario.gNodeB1.ipv4.routingTable\""
par DummyScenario.gNodeB1.ipv4.configurator networkConfiguratorModule "\"configurator\""
par DummyScenario.gNodeB1.ipv4.configurator configureRoutingTable true
par DummyScenario.gNodeB1.ipv4.routingTable typename "\"inet.networklayer.ipv4.Ipv4RoutingTable\""
par DummyScenario.gNodeB1.ipv4.routingTable interfaceTableModule "\"DummyScenario.gNodeB1.interfaceTable\""
par DummyScenario.gNodeB1.ipv4.routingTable routerId "\"auto\""
par DummyScenario.gNodeB1.ipv4.routingTable netmaskRoutes "\"*\""
par DummyScenario.gNodeB1.ipv4.routingTable forwarding true
par DummyScenario.gNodeB1.ipv4.routingTable multicastForwarding false
par DummyScenario.gNodeB1.ipv4.routingTable useAdminDist false
par DummyScenario.gNodeB1.ipv4.routingTable routingFile "\"\""
par DummyScenario.gNodeB1.ipv4.natTable typename "\"inet.networklayer.ipv4.Ipv4NatTable\""
par DummyScenario.gNodeB1.ipv4.natTable networkProtocolModule "\"^.ip\""
par DummyScenario.gNodeB1.ipv4.natTable config "<config/> at content:1"
par DummyScenario.gNodeB1.ipv4.up typename "\"inet.common.MessageDispatcher\""
par DummyScenario.gNodeB1.ipv4.up displayStringTextFormat "\"processed %p pk (%l)\""
par DummyScenario.gNodeB1.ipv4.igmp typename "\"inet.networklayer.ipv4.Igmpv2\""
par DummyScenario.gNodeB1.ipv4.igmp interfaceTableModule "\"DummyScenario.gNodeB1.interfaceTable\""
par DummyScenario.gNodeB1.ipv4.igmp routingTableModule "\"DummyScenario.gNodeB1.ipv4.routingTable\""
par DummyScenario.gNodeB1.ipv4.igmp crcMode "\"declared\""
attr enum declared,computed
par DummyScenario.gNodeB1.ipv4.igmp enabled true
par DummyScenario.gNodeB1.ipv4.igmp robustnessVariable 2
par DummyScenario.gNodeB1.ipv4.igmp queryInterval 125s
attr unit s
par DummyScenario.gNodeB1.ipv4.igmp queryResponseInterval 10s
attr unit s
par DummyScenario.gNodeB1.ipv4.igmp groupMembershipInterval 260s
attr unit s
par DummyScenario.gNodeB1.ipv4.igmp otherQuerierPresentInterval 255s
attr unit s
par DummyScenario.gNodeB1.ipv4.igmp startupQueryInterval 31.25s
attr unit s
par DummyScenario.gNodeB1.ipv4.igmp startupQueryCount 2
par DummyScenario.gNodeB1.ipv4.igmp lastMemberQueryInterval 1s
attr unit s
par DummyScenario.gNodeB1.ipv4.igmp lastMemberQueryCount 2
par DummyScenario.gNodeB1.ipv4.igmp unsolicitedReportInterval 10s
attr unit s
par DummyScenario.gNodeB1.ipv4.icmp typename "\"inet.networklayer.ipv4.Icmp\""
par DummyScenario.gNodeB1.ipv4.icmp interfaceTableModule "\"DummyScenario.gNodeB1.interfaceTable\""
par DummyScenario.gNodeB1.ipv4.icmp routingTableModule "\"DummyScenario.gNodeB1.ipv4.routingTable\""
par DummyScenario.gNodeB1.ipv4.icmp crcMode "\"declared\""
attr enum declared,computed
par DummyScenario.gNodeB1.ipv4.icmp quoteLength 8B
attr unit B
par DummyScenario.gNodeB1.ipv4.mp typename "\"inet.common.MessageDispatcher\""
par DummyScenario.gNodeB1.ipv4.mp displayStringTextFormat "\"processed %p pk (%l)\""
par DummyScenario.gNodeB1.ipv4.ip typename "\"inet.networklayer.ipv4.Ipv4\""
par DummyScenario.gNodeB1.ipv4.ip interfaceTableModule "\"DummyScenario.gNodeB1.interfaceTable\""
par DummyScenario.gNodeB1.ipv4.ip routingTableModule "\"DummyScenario.gNodeB1.ipv4.routingTable\""
par DummyScenario.gNodeB1.ipv4.ip arpModule "\"DummyScenario.gNodeB1.ipv4.arp\""
par DummyScenario.gNodeB1.ipv4.ip icmpModule "\"DummyScenario.gNodeB1.ipv4.icmp\""
par DummyScenario.gNodeB1.ipv4.ip crcMode "\"declared\""
attr enum declared,computed
par DummyScenario.gNodeB1.ipv4.ip timeToLive 32
par DummyScenario.gNodeB1.ipv4.ip multicastTimeToLive 32
par DummyScenario.gNodeB1.ipv4.ip fragmentTimeout 60s
attr unit s
par DummyScenario.gNodeB1.ipv4.ip limitedBroadcast false
par DummyScenario.gNodeB1.ipv4.ip directBroadcastInterfaces "\"\""
par DummyScenario.gNodeB1.ipv4.arp typename "\"inet.networklayer.arp.ipv4.Arp\""
par DummyScenario.gNodeB1.ipv4.arp interfaceTableModule "\"DummyScenario.gNodeB1.interfaceTable\""
par DummyScenario.gNodeB1.ipv4.arp routingTableModule "\"DummyScenario.gNodeB1.ipv4.routingTable\""
par DummyScenario.gNodeB1.ipv4.arp retryTimeout 1s
attr unit s
par DummyScenario.gNodeB1.ipv4.arp retryCount 3
par DummyScenario.gNodeB1.ipv4.arp cacheTimeout 120s
attr unit s
par DummyScenario.gNodeB1.ipv4.arp proxyArpInterfaces "\"*\""
par DummyScenario.gNodeB1.ipv4.lp typename "\"inet.common.MessageDispatcher\""
par DummyScenario.gNodeB1.ipv4.lp displayStringTextFormat "\"processed %p pk (%l)\""
par DummyScenario.gNodeB1.ipv4 typename "\"inet.networklayer.ipv4.Ipv4NetworkLayer\""
par DummyScenario.gNodeB1.ipv4 forwarding true
par DummyScenario.gNodeB1.ipv4 multicastForwarding false
par DummyScenario.gNodeB1.ipv4 interfaceTableModule "\"DummyScenario.gNodeB1.interfaceTable\""
par DummyScenario.gNodeB1.ipv4 displayStringTextFormat "\"%i\""
par DummyScenario.gNodeB1.udp typename "\"inet.transportlayer.udp.Udp\""
par DummyScenario.gNodeB1.udp interfaceTableModule "\"DummyScenario.gNodeB1.interfaceTable\""
par DummyScenario.gNodeB1.udp icmpModule "\"^.ipv4.icmp\""
par DummyScenario.gNodeB1.udp icmpv6Module "\"^.ipv6.icmpv6\""
par DummyScenario.gNodeB1.udp crcMode "\"declared\""
attr enum disabled,declared,computed
par DummyScenario.gNodeB1.tcp typename "\"inet.transportlayer.tcp.Tcp\""
par DummyScenario.gNodeB1.tcp crcMode "\"declared\""
attr enum declared,computed
par DummyScenario.gNodeB1.tcp advertisedWindow 65535
par DummyScenario.gNodeB1.tcp delayedAcksEnabled false
par DummyScenario.gNodeB1.tcp nagleEnabled true
par DummyScenario.gNodeB1.tcp limitedTransmitEnabled false
par DummyScenario.gNodeB1.tcp increasedIWEnabled false
par DummyScenario.gNodeB1.tcp sackSupport true
par DummyScenario.gNodeB1.tcp windowScalingSupport false
par DummyScenario.gNodeB1.tcp windowScalingFactor -1
par DummyScenario.gNodeB1.tcp timestampSupport false
par DummyScenario.gNodeB1.tcp mss 536
par DummyScenario.gNodeB1.tcp msl 120s
attr unit s
par DummyScenario.gNodeB1.tcp tcpAlgorithmClass "\"TcpReno\""
attr enum TcpVegas,TcpWestwood,TcpNewReno,TcpReno,TcpTahoe,TcpNoCongestionControl
par DummyScenario.gNodeB1.tcp useDataNotification false
par DummyScenario.gNodeB1.tcp dupthresh 3
par DummyScenario.gNodeB1.tcp initialSsthresh 4294967295
par DummyScenario.gNodeB1.tcp stopOperationExtraTime 0s
attr unit s
par DummyScenario.gNodeB1.tcp stopOperationTimeout 2s
attr unit s
par DummyScenario.gNodeB1.tcp ecnWillingness false
par DummyScenario.gNodeB1.tcp dctcpGamma 0.0625
par DummyScenario.gNodeB1.x2App[0].client typename "\"simu5g.x2.X2AppClient\""
par DummyScenario.gNodeB1.x2App[0].client localAddress "\"\""
par DummyScenario.gNodeB1.x2App[0].client localPort 0
par DummyScenario.gNodeB1.x2App[0].client connectAddress "\"gNodeB2%x2ppp0\""
par DummyScenario.gNodeB1.x2App[0].client connectPort 5000
par DummyScenario.gNodeB1.x2App[0].client startTime 0s
attr unit s
par DummyScenario.gNodeB1.x2App[0].client numRequestsPerSession 1
par DummyScenario.gNodeB1.x2App[0].client numPacketsToReceive 0
par DummyScenario.gNodeB1.x2App[0].client requestLength 1452
par DummyScenario.gNodeB1.x2App[0].client thinkTime 0s
attr unit s
par DummyScenario.gNodeB1.x2App[0].client waitToClose 0s
attr unit s
par DummyScenario.gNodeB1.x2App[0].client reconnectInterval 0s
attr unit s
par DummyScenario.gNodeB1.x2App[0].client inboundStreams 17
par DummyScenario.gNodeB1.x2App[0].client outboundStreams 1
par DummyScenario.gNodeB1.x2App[0].client echo false
par DummyScenario.gNodeB1.x2App[0].client ordered true
par DummyScenario.gNodeB1.x2App[0].client queueSize 0
par DummyScenario.gNodeB1.x2App[0].client prMethod 0
par DummyScenario.gNodeB1.x2App[0].client prValue 0
par DummyScenario.gNodeB1.x2App[0].client streamReset false
par DummyScenario.gNodeB1.x2App[0].client streamRequestTime 0s
attr unit s
par DummyScenario.gNodeB1.x2App[0].client streamResetType 5
par DummyScenario.gNodeB1.x2App[0].client streamToReset 0
par DummyScenario.gNodeB1.x2App[0].client stopTime -1s
attr unit s
par DummyScenario.gNodeB1.x2App[0].client primaryTime 0s
attr unit s
par DummyScenario.gNodeB1.x2App[0].client newPrimary "\"\""
par DummyScenario.gNodeB1.x2App[0].client streamRequestLengths "\"\""
par DummyScenario.gNodeB1.x2App[0].client streamRequestRatio "\"\""
par DummyScenario.gNodeB1.x2App[0].client streamPriorities "\"\""
par DummyScenario.gNodeB1.x2App[0].client finishEndsSimulation false
par DummyScenario.gNodeB1.x2App[0].server typename "\"simu5g.x2.X2AppServer\""
par DummyScenario.gNodeB1.x2App[0].server localAddress "\"\""
par DummyScenario.gNodeB1.x2App[0].server localPort 5000
par DummyScenario.gNodeB1.x2App[0].server echo false
par DummyScenario.gNodeB1.x2App[0].server echoDelay 0s
attr unit s
par DummyScenario.gNodeB1.x2App[0].server delayFirstRead 0s
attr unit s
par DummyScenario.gNodeB1.x2App[0].server readingInterval 0s
attr unit s
par DummyScenario.gNodeB1.x2App[0].server messagesToPush 0
par DummyScenario.gNodeB1.x2App[0].server numPacketsToSendPerClient 0
par DummyScenario.gNodeB1.x2App[0].server numPacketsToReceivePerClient 1
par DummyScenario.gNodeB1.x2App[0].server requestLength 1452
par DummyScenario.gNodeB1.x2App[0].server thinkTime 0s
attr unit s
par DummyScenario.gNodeB1.x2App[0].server waitToClose 0s
attr unit s
par DummyScenario.gNodeB1.x2App[0].server finishEndsSimulation false
par DummyScenario.gNodeB1.x2App[0].server ordered true
par DummyScenario.gNodeB1.x2App[0].server inboundStreams 17
par DummyScenario.gNodeB1.x2App[0].server outboundStreams 1
par DummyScenario.gNodeB1.x2App[0].server queueSize 0
par DummyScenario.gNodeB1.x2App[0].server prMethod 0
par DummyScenario.gNodeB1.x2App[0].server prValue 0
par DummyScenario.gNodeB1.x2App[0].server streamReset false
par DummyScenario.gNodeB1.x2App[0].server streamRequestTime 0s
attr unit s
par DummyScenario.gNodeB1.x2App[0].server streamToReset 0
par DummyScenario.gNodeB1.x2App[0].server streamPriorities "\"\""
par DummyScenario.gNodeB1.x2App[0] typename "\"simu5g.x2.LteX2App\""
par DummyScenario.gNodeB1.x2App[1].client typename "\"simu5g.x2.X2AppClient\""
par DummyScenario.gNodeB1.x2App[1].client localAddress "\"\""
par DummyScenario.gNodeB1.x2App[1].client localPort 0
par DummyScenario.gNodeB1.x2App[1].client connectAddress "\"gNodeB3%x2ppp0\""
par DummyScenario.gNodeB1.x2App[1].client connectPort 5000
par DummyScenario.gNodeB1.x2App[1].client startTime 0s
attr unit s
par DummyScenario.gNodeB1.x2App[1].client numRequestsPerSession 1
par DummyScenario.gNodeB1.x2App[1].client numPacketsToReceive 0
par DummyScenario.gNodeB1.x2App[1].client requestLength 1452
par DummyScenario.gNodeB1.x2App[1].client thinkTime 0s
attr unit s
par DummyScenario.gNodeB1.x2App[1].client waitToClose 0s
attr unit s
par DummyScenario.gNodeB1.x2App[1].client reconnectInterval 0s
attr unit s
par DummyScenario.gNodeB1.x2App[1].client inboundStreams 17
par DummyScenario.gNodeB1.x2App[1].client outboundStreams 1
par DummyScenario.gNodeB1.x2App[1].client echo false
par DummyScenario.gNodeB1.x2App[1].client ordered true
par DummyScenario.gNodeB1.x2App[1].client queueSize 0
par DummyScenario.gNodeB1.x2App[1].client prMethod 0
par DummyScenario.gNodeB1.x2App[1].client prValue 0
par DummyScenario.gNodeB1.x2App[1].client streamReset false
par DummyScenario.gNodeB1.x2App[1].client streamRequestTime 0s
attr unit s
par DummyScenario.gNodeB1.x2App[1].client streamResetType 5
par DummyScenario.gNodeB1.x2App[1].client streamToReset 0
par DummyScenario.gNodeB1.x2App[1].client stopTime -1s
attr unit s
par DummyScenario.gNodeB1.x2App[1].client primaryTime 0s
attr unit s
par DummyScenario.gNodeB1.x2App[1].client newPrimary "\"\""
par DummyScenario.gNodeB1.x2App[1].client streamRequestLengths "\"\""
par DummyScenario.gNodeB1.x2App[1].client streamRequestRatio "\"\""
par DummyScenario.gNodeB1.x2App[1].client streamPriorities "\"\""
par DummyScenario.gNodeB1.x2App[1].client finishEndsSimulation false
par DummyScenario.gNodeB1.x2App[1].server typename "\"simu5g.x2.X2AppServer\""
par DummyScenario.gNodeB1.x2App[1].server localAddress "\"\""
par DummyScenario.gNodeB1.x2App[1].server localPort 5001
par DummyScenario.gNodeB1.x2App[1].server echo false
par DummyScenario.gNodeB1.x2App[1].server echoDelay 0s
attr unit s
par DummyScenario.gNodeB1.x2App[1].server delayFirstRead 0s
attr unit s
par DummyScenario.gNodeB1.x2App[1].server readingInterval 0s
attr unit s
par DummyScenario.gNodeB1.x2App[1].server messagesToPush 0
par DummyScenario.gNodeB1.x2App[1].server numPacketsToSendPerClient 0
par DummyScenario.gNodeB1.x2App[1].server numPacketsToReceivePerClient 1
par DummyScenario.gNodeB1.x2App[1].server requestLength 1452
par DummyScenario.gNodeB1.x2App[1].server thinkTime 0s
attr unit s
par DummyScenario.gNodeB1.x2App[1].server waitToClose 0s
attr unit s
par DummyScenario.gNodeB1.x2App[1].server finishEndsSimulation false
par DummyScenario.gNodeB1.x2App[1].server ordered true
par DummyScenario.gNodeB1.x2App[1].server inboundStreams 17
par DummyScenario.gNodeB1.x2App[1].server outboundStreams 1
par DummyScenario.gNodeB1.x2App[1].server queueSize 0
par DummyScenario.gNodeB1.x2App[1].server prMethod 0
par DummyScenario.gNodeB1.x2App[1].server prValue 0
par DummyScenario.gNodeB1.x2App[1].server streamReset false
par DummyScenario.gNodeB1.x2App[1].server streamRequestTime 0s
attr unit s
par DummyScenario.gNodeB1.x2App[1].server streamToReset 0
par DummyScenario.gNodeB1.x2App[1].server streamPriorities "\"\""
par DummyScenario.gNodeB1.x2App[1] typename "\"simu5g.x2.LteX2App\""
par DummyScenario.gNodeB1.sctp typename "\"inet.transportlayer.sctp.Sctp\""
par DummyScenario.gNodeB1.sctp interfaceTableModule "\"DummyScenario.gNodeB1.interfaceTable\""
par DummyScenario.gNodeB1.sctp routingTableModule "\"^.ipv4.routingTable\""
[...]
par DummyScenario.mecHost.upf_mec.ipv4.igmp queryInterval 125s
attr unit s
par DummyScenario.mecHost.upf_mec.ipv4.igmp queryResponseInterval 10s
attr unit s
par DummyScenario.mecHost.upf_mec.ipv4.igmp groupMembershipInterval 260s
attr unit s
par DummyScenario.mecHost.upf_mec.ipv4.igmp otherQuerierPresentInterval 255s
attr unit s
par DummyScenario.mecHost.upf_mec.ipv4.igmp startupQueryInterval 31.25s
attr unit s
par DummyScenario.mecHost.upf_mec.ipv4.igmp startupQueryCount 2
par DummyScenario.mecHost.upf_mec.ipv4.igmp lastMemberQueryInterval 1s
attr unit s
par DummyScenario.mecHost.upf_mec.ipv4.igmp lastMemberQueryCount 2
par DummyScenario.mecHost.upf_mec.ipv4.igmp unsolicitedReportInterval 10s
attr unit s
par DummyScenario.mecHost.upf_mec.ipv4.icmp typename "\"inet.networklayer.ipv4.Icmp\""
par DummyScenario.mecHost.upf_mec.ipv4.icmp interfaceTableModule "\"DummyScenario.mecHost.upf_mec.interfaceTable\""
par DummyScenario.mecHost.upf_mec.ipv4.icmp routingTableModule "\"DummyScenario.mecHost.upf_mec.ipv4.routingTable\""
par DummyScenario.mecHost.upf_mec.ipv4.icmp crcMode "\"declared\""
attr enum declared,computed
par DummyScenario.mecHost.upf_mec.ipv4.icmp quoteLength 8B
attr unit B
par DummyScenario.mecHost.upf_mec.ipv4.mp typename "\"inet.common.MessageDispatcher\""
par DummyScenario.mecHost.upf_mec.ipv4.mp displayStringTextFormat "\"processed %p pk (%l)\""
par DummyScenario.mecHost.upf_mec.ipv4.ip typename "\"inet.networklayer.ipv4.Ipv4\""
par DummyScenario.mecHost.upf_mec.ipv4.ip interfaceTableModule "\"DummyScenario.mecHost.upf_mec.interfaceTable\""
par DummyScenario.mecHost.upf_mec.ipv4.ip routingTableModule "\"DummyScenario.mecHost.upf_mec.ipv4.routingTable\""
par DummyScenario.mecHost.upf_mec.ipv4.ip arpModule "\"DummyScenario.mecHost.upf_mec.ipv4.arp\""
par DummyScenario.mecHost.upf_mec.ipv4.ip icmpModule "\"DummyScenario.mecHost.upf_mec.ipv4.icmp\""
par DummyScenario.mecHost.upf_mec.ipv4.ip crcMode "\"declared\""
attr enum declared,computed
par DummyScenario.mecHost.upf_mec.ipv4.ip timeToLive 32
par DummyScenario.mecHost.upf_mec.ipv4.ip multicastTimeToLive 32
par DummyScenario.mecHost.upf_mec.ipv4.ip fragmentTimeout 60s
attr unit s
par DummyScenario.mecHost.upf_mec.ipv4.ip limitedBroadcast false
par DummyScenario.mecHost.upf_mec.ipv4.ip directBroadcastInterfaces "\"\""
par DummyScenario.mecHost.upf_mec.ipv4.arp typename "\"inet.networklayer.arp.ipv4.Arp\""
par DummyScenario.mecHost.upf_mec.ipv4.arp interfaceTableModule "\"DummyScenario.mecHost.upf_mec.interfaceTable\""
par DummyScenario.mecHost.upf_mec.ipv4.arp routingTableModule "\"DummyScenario.mecHost.upf_mec.ipv4.routingTable\""
par DummyScenario.mecHost.upf_mec.ipv4.arp retryTimeout 1s
attr unit s
par DummyScenario.mecHost.upf_mec.ipv4.arp retryCount 3
par DummyScenario.mecHost.upf_mec.ipv4.arp cacheTimeout 120s
attr unit s
par DummyScenario.mecHost.upf_mec.ipv4.arp proxyArpInterfaces "\"*\""
par DummyScenario.mecHost.upf_mec.ipv4.lp typename "\"inet.common.MessageDispatcher\""
par DummyScenario.mecHost.upf_mec.ipv4.lp displayStringTextFormat "\"processed %p pk (%l)\""
par DummyScenario.mecHost.upf_mec.ipv4 typename "\"inet.networklayer.ipv4.Ipv4NetworkLayer\""
par DummyScenario.mecHost.upf_mec.ipv4 forwarding true
par DummyScenario.mecHost.upf_mec.ipv4 multicastForwarding false
par DummyScenario.mecHost.upf_mec.ipv4 interfaceTableModule "\"DummyScenario.mecHost.upf_mec.interfaceTable\""
par DummyScenario.mecHost.upf_mec.ipv4 displayStringTextFormat "\"%i\""
par DummyScenario.mecHost.upf_mec.nl typename "\"inet.common.MessageDispatcher\""
par DummyScenario.mecHost.upf_mec.nl displayStringTextFormat "\"processed %p pk (%l)\""
par DummyScenario.mecHost.upf_mec.pppIf.upperLayerIn.channel typename "\"ned.IdealChannel\""
par DummyScenario.mecHost.upf_mec.pppIf.phys$i.channel typename "\"ned.IdealChannel\""
par DummyScenario.mecHost.upf_mec.pppIf.ppp.phys$o.channel typename "\"ned.IdealChannel\""
par DummyScenario.mecHost.upf_mec.pppIf.ppp.upperLayerOut.channel typename "\"ned.IdealChannel\""
par DummyScenario.mecHost.upf_mec.pppIf.ppp.queue typename "\"inet.queueing.queue.DropTailQueue\""
par DummyScenario.mecHost.upf_mec.pppIf.ppp.queue displayStringTextFormat "\"contains %p pk (%l) pushed %u\\npulled %o removed %r dropped %d\""
par DummyScenario.mecHost.upf_mec.pppIf.ppp.queue packetCapacity 10000
par DummyScenario.mecHost.upf_mec.pppIf.ppp.queue dataCapacity -1b
attr unit b
par DummyScenario.mecHost.upf_mec.pppIf.ppp.queue dropperClass "\"inet::queueing::PacketAtCollectionEndDropper\""
par DummyScenario.mecHost.upf_mec.pppIf.ppp.queue comparatorClass "\"\""
par DummyScenario.mecHost.upf_mec.pppIf.ppp.queue bufferModule "\"\""
par DummyScenario.mecHost.upf_mec.pppIf.ppp typename "\"inet.linklayer.ppp.Ppp\""
par DummyScenario.mecHost.upf_mec.pppIf.ppp interfaceTableModule "\"DummyScenario.mecHost.upf_mec.interfaceTable\""
par DummyScenario.mecHost.upf_mec.pppIf.ppp displayStringTextFormat "\"rate: %b\\nsent: %s, rcvd: %r\\nqueue: %q, drop: %d\""
par DummyScenario.mecHost.upf_mec.pppIf.ppp sendRawBytes false
par DummyScenario.mecHost.upf_mec.pppIf.ppp mtu 4470B
attr unit B
par DummyScenario.mecHost.upf_mec.pppIf.ppp stopOperationExtraTime -1s
attr unit s
par DummyScenario.mecHost.upf_mec.pppIf.ppp stopOperationTimeout 2s
attr unit s
par DummyScenario.mecHost.upf_mec.pppIf typename "\"inet.linklayer.ppp.PppInterface\""
par DummyScenario.mecHost.upf_mec.pppIf displayStringTextFormat "\"%a (%i)\\n%m\""
par DummyScenario.mecHost.upf_mec.pppIf recordPcap false
par DummyScenario.mecHost.upf_mec.pppIf numPcapRecorders 0
par DummyScenario.mecHost.upf_mec.pppIf interfaceTableModule "\"DummyScenario.mecHost.upf_mec.interfaceTable\""
par DummyScenario.mecHost.upf_mec.udp typename "\"inet.transportlayer.udp.Udp\""
par DummyScenario.mecHost.upf_mec.udp interfaceTableModule "\"DummyScenario.mecHost.upf_mec.interfaceTable\""
par DummyScenario.mecHost.upf_mec.udp icmpModule "\"^.ipv4.icmp\""
par DummyScenario.mecHost.upf_mec.udp icmpv6Module "\"^.ipv6.icmpv6\""
par DummyScenario.mecHost.upf_mec.udp crcMode "\"declared\""
attr enum disabled,declared,computed
par DummyScenario.mecHost.upf_mec.trafficFlowFilter typename "\"simu5g.corenetwork.trafficFlowFilter.TrafficFlowFilter\""
par DummyScenario.mecHost.upf_mec.trafficFlowFilter ownerType "\"UPF_MEC\""
par DummyScenario.mecHost.upf_mec.trafficFlowFilter fastForwarding true
par DummyScenario.mecHost.upf_mec.gtp_user typename "\"simu5g.corenetwork.gtp.GtpUser\""
par DummyScenario.mecHost.upf_mec.gtp_user interfaceTableModule "\"DummyScenario.mecHost.upf_mec.interfaceTable\""
par DummyScenario.mecHost.upf_mec.gtp_user ipOutInterface "\"\""
par DummyScenario.mecHost.upf_mec.gtp_user localPort 31
par DummyScenario.mecHost.upf_mec.gtp_user tunnelPeerPort 31
par DummyScenario.mecHost.upf_mec.gtp_user filter true
par DummyScenario.mecHost.upf_mec.tn typename "\"inet.common.MessageDispatcher\""
par DummyScenario.mecHost.upf_mec.tn displayStringTextFormat "\"processed %p pk (%l)\""
par DummyScenario.mecHost.upf_mec.at typename "\"inet.common.MessageDispatcher\""
par DummyScenario.mecHost.upf_mec.at displayStringTextFormat "\"processed %p pk (%l)\""
par DummyScenario.mecHost.upf_mec typename "\"simu5g.nodes.Upf\""
par DummyScenario.mecHost.upf_mec hasStatus false
par DummyScenario.mecHost.upf_mec osgModel "\"\""
par DummyScenario.mecHost.upf_mec osgModelColor "\"\""
par DummyScenario.mecHost.upf_mec canvasImage "\"\""
par DummyScenario.mecHost.upf_mec canvasImageColor "\"\""
par DummyScenario.mecHost.upf_mec recordPcap false
par DummyScenario.mecHost.upf_mec numPcapRecorders 0
par DummyScenario.mecHost.upf_mec numLoInterfaces 1
par DummyScenario.mecHost.upf_mec numWlanInterfaces 0
par DummyScenario.mecHost.upf_mec numEthInterfaces 0
par DummyScenario.mecHost.upf_mec numPppInterfaces 0
par DummyScenario.mecHost.upf_mec numTunInterfaces 0
par DummyScenario.mecHost.upf_mec numVirtInterfaces 0
par DummyScenario.mecHost.upf_mec hasIpv4 true
par DummyScenario.mecHost.upf_mec hasIpv6 false
par DummyScenario.mecHost.upf_mec hasGn false
par DummyScenario.mecHost.upf_mec forwarding true
par DummyScenario.mecHost.upf_mec multicastForwarding false
par DummyScenario.mecHost.upf_mec nodeType "\"UPF_MEC\""
par DummyScenario.mecHost typename "\"simu5g.nodes.mec.MECHost\""
par DummyScenario.mecHost nodeType "\"MECHost\""
par DummyScenario.mecHost gateway "\"upf\""
par DummyScenario.mecHost maxMECApps 100
par DummyScenario.mecHost maxRam 3.2e+10B
attr unit B
par DummyScenario.mecHost maxDisk 1e+14B
attr unit B
par DummyScenario.mecHost maxCpuSpeed 400000
par DummyScenario.mecHost numBGMecApp 0
par DummyScenario.mecHost eNBList "\"gNodeB1\""
par DummyScenario.mecOrchestrator typename "\"simu5g.nodes.mec.MECOrchestrator.MecOrchestrator\""
par DummyScenario.mecOrchestrator mecHostList "\"mecHost\""
par DummyScenario.mecOrchestrator mecApplicationPackageList "\"\""
par DummyScenario.mecOrchestrator onboardingTime 0.05s
attr unit s
par DummyScenario.mecOrchestrator instantiationTime 0.05s
attr unit s
par DummyScenario.mecOrchestrator terminationTime 0.05s
attr unit s
par DummyScenario.ualcmp.interfaceTable typename "\"inet.networklayer.common.InterfaceTable\""
par DummyScenario.ualcmp.interfaceTable displayAddresses false
par DummyScenario.ualcmp.pppIf.upperLayerIn.channel typename "\"ned.IdealChannel\""
par DummyScenario.ualcmp.pppIf.phys$i.channel typename "\"ned.IdealChannel\""
par DummyScenario.ualcmp.pppIf.ppp.phys$o.channel typename "\"ned.IdealChannel\""
par DummyScenario.ualcmp.pppIf.ppp.upperLayerOut.channel typename "\"ned.IdealChannel\""
par DummyScenario.ualcmp.pppIf.ppp.queue typename "\"inet.queueing.queue.DropTailQueue\""
par DummyScenario.ualcmp.pppIf.ppp.queue displayStringTextFormat "\"contains %p pk (%l) pushed %u\\npulled %o removed %r dropped %d\""
par DummyScenario.ualcmp.pppIf.ppp.queue packetCapacity 10000
par DummyScenario.ualcmp.pppIf.ppp.queue dataCapacity -1b
attr unit b
par DummyScenario.ualcmp.pppIf.ppp.queue dropperClass "\"inet::queueing::PacketAtCollectionEndDropper\""
par DummyScenario.ualcmp.pppIf.ppp.queue comparatorClass "\"\""
par DummyScenario.ualcmp.pppIf.ppp.queue bufferModule "\"\""
par DummyScenario.ualcmp.pppIf.ppp typename "\"inet.linklayer.ppp.Ppp\""
par DummyScenario.ualcmp.pppIf.ppp interfaceTableModule "\"DummyScenario.ualcmp.interfaceTable\""
par DummyScenario.ualcmp.pppIf.ppp displayStringTextFormat "\"rate: %b\\nsent: %s, rcvd: %r\\nqueue: %q, drop: %d\""
par DummyScenario.ualcmp.pppIf.ppp sendRawBytes false
par DummyScenario.ualcmp.pppIf.ppp mtu 4470B
attr unit B
par DummyScenario.ualcmp.pppIf.ppp stopOperationExtraTime -1s
attr unit s
par DummyScenario.ualcmp.pppIf.ppp stopOperationTimeout 2s
attr unit s
par DummyScenario.ualcmp.pppIf typename "\"inet.linklayer.ppp.PppInterface\""
par DummyScenario.ualcmp.pppIf displayStringTextFormat "\"%a (%i)\\n%m\""
par DummyScenario.ualcmp.pppIf recordPcap false
par DummyScenario.ualcmp.pppIf numPcapRecorders 0
par DummyScenario.ualcmp.pppIf interfaceTableModule "\"DummyScenario.ualcmp.interfaceTable\""
par DummyScenario.ualcmp.ipv4.transportIn.channel typename "\"ned.IdealChannel\""
par DummyScenario.ualcmp.ipv4.up.out[0].channel typename "\"ned.IdealChannel\""
par DummyScenario.ualcmp.ipv4.lp.out[2].channel typename "\"ned.IdealChannel\""
par DummyScenario.ualcmp.ipv4.ifIn.channel typename "\"ned.IdealChannel\""
par DummyScenario.ualcmp.ipv4.configurator typename "\"inet.networklayer.configurator.ipv4.Ipv4NodeConfigurator\""
par DummyScenario.ualcmp.ipv4.configurator interfaceTableModule "\"DummyScenario.ualcmp.interfaceTable\""
par DummyScenario.ualcmp.ipv4.configurator routingTableModule "\"DummyScenario.ualcmp.ipv4.routingTable\""
par DummyScenario.ualcmp.ipv4.configurator networkConfiguratorModule "\"configurator\""
par DummyScenario.ualcmp.ipv4.configurator configureRoutingTable true
par DummyScenario.ualcmp.ipv4.routingTable typename "\"inet.networklayer.ipv4.Ipv4RoutingTable\""
par DummyScenario.ualcmp.ipv4.routingTable interfaceTableModule "\"DummyScenario.ualcmp.interfaceTable\""
par DummyScenario.ualcmp.ipv4.routingTable routerId "\"auto\""
par DummyScenario.ualcmp.ipv4.routingTable netmaskRoutes "\"*\""
par DummyScenario.ualcmp.ipv4.routingTable forwarding false
par DummyScenario.ualcmp.ipv4.routingTable multicastForwarding false
par DummyScenario.ualcmp.ipv4.routingTable useAdminDist false
par DummyScenario.ualcmp.ipv4.routingTable routingFile "\"\""
par DummyScenario.ualcmp.ipv4.natTable typename "\"inet.networklayer.ipv4.Ipv4NatTable\""
par DummyScenario.ualcmp.ipv4.natTable networkProtocolModule "\"^.ip\""
par DummyScenario.ualcmp.ipv4.natTable config "<config/> at content:1"
par DummyScenario.ualcmp.ipv4.up typename "\"inet.common.MessageDispatcher\""
par DummyScenario.ualcmp.ipv4.up displayStringTextFormat "\"processed %p pk (%l)\""
par DummyScenario.ualcmp.ipv4.igmp typename "\"inet.networklayer.ipv4.Igmpv2\""
par DummyScenario.ualcmp.ipv4.igmp interfaceTableModule "\"DummyScenario.ualcmp.interfaceTable\""
par DummyScenario.ualcmp.ipv4.igmp routingTableModule "\"DummyScenario.ualcmp.ipv4.routingTable\""
par DummyScenario.ualcmp.ipv4.igmp crcMode "\"declared\""
attr enum declared,computed
par DummyScenario.ualcmp.ipv4.igmp enabled true
par DummyScenario.ualcmp.ipv4.igmp robustnessVariable 2
par DummyScenario.ualcmp.ipv4.igmp queryInterval 125s
attr unit s
par DummyScenario.ualcmp.ipv4.igmp queryResponseInterval 10s
attr unit s
par DummyScenario.ualcmp.ipv4.igmp groupMembershipInterval 260s
attr unit s
par DummyScenario.ualcmp.ipv4.igmp otherQuerierPresentInterval 255s
attr unit s
par DummyScenario.ualcmp.ipv4.igmp startupQueryInterval 31.25s
attr unit s
par DummyScenario.ualcmp.ipv4.igmp startupQueryCount 2
par DummyScenario.ualcmp.ipv4.igmp lastMemberQueryInterval 1s
attr unit s
par DummyScenario.ualcmp.ipv4.igmp lastMemberQueryCount 2
par DummyScenario.ualcmp.ipv4.igmp unsolicitedReportInterval 10s
attr unit s
par DummyScenario.ualcmp.ipv4.icmp typename "\"inet.networklayer.ipv4.Icmp\""
par DummyScenario.ualcmp.ipv4.icmp interfaceTableModule "\"DummyScenario.ualcmp.interfaceTable\""
par DummyScenario.ualcmp.ipv4.icmp routingTableModule "\"DummyScenario.ualcmp.ipv4.routingTable\""
par DummyScenario.ualcmp.ipv4.icmp crcMode "\"declared\""
attr enum declared,computed
par DummyScenario.ualcmp.ipv4.icmp quoteLength 8B
attr unit B
par DummyScenario.ualcmp.ipv4.mp typename "\"inet.common.MessageDispatcher\""
par DummyScenario.ualcmp.ipv4.mp displayStringTextFormat "\"processed %p pk (%l)\""
par DummyScenario.ualcmp.ipv4.ip typename "\"inet.networklayer.ipv4.Ipv4\""
par DummyScenario.ualcmp.ipv4.ip interfaceTableModule "\"DummyScenario.ualcmp.interfaceTable\""
par DummyScenario.ualcmp.ipv4.ip routingTableModule "\"DummyScenario.ualcmp.ipv4.routingTable\""
par DummyScenario.ualcmp.ipv4.ip arpModule "\"DummyScenario.ualcmp.ipv4.arp\""
par DummyScenario.ualcmp.ipv4.ip icmpModule "\"DummyScenario.ualcmp.ipv4.icmp\""
par DummyScenario.ualcmp.ipv4.ip crcMode "\"declared\""
attr enum declared,computed
par DummyScenario.ualcmp.ipv4.ip timeToLive 32
par DummyScenario.ualcmp.ipv4.ip multicastTimeToLive 32
par DummyScenario.ualcmp.ipv4.ip fragmentTimeout 60s
attr unit s
par DummyScenario.ualcmp.ipv4.ip limitedBroadcast false
par DummyScenario.ualcmp.ipv4.ip directBroadcastInterfaces "\"\""
par DummyScenario.ualcmp.ipv4.arp typename "\"inet.networklayer.arp.ipv4.Arp\""
par DummyScenario.ualcmp.ipv4.arp interfaceTableModule "\"DummyScenario.ualcmp.interfaceTable\""
par DummyScenario.ualcmp.ipv4.arp routingTableModule "\"DummyScenario.ualcmp.ipv4.routingTable\""
par DummyScenario.ualcmp.ipv4.arp retryTimeout 1s
attr unit s
par DummyScenario.ualcmp.ipv4.arp retryCount 3
par DummyScenario.ualcmp.ipv4.arp cacheTimeout 120s
attr unit s
par DummyScenario.ualcmp.ipv4.arp proxyArpInterfaces "\"*\""
par DummyScenario.ualcmp.ipv4.lp typename "\"inet.common.MessageDispatcher\""
par DummyScenario.ualcmp.ipv4.lp displayStringTextFormat "\"processed %p pk (%l)\""
par DummyScenario.ualcmp.ipv4 typename "\"inet.networklayer.ipv4.Ipv4NetworkLayer\""
par DummyScenario.ualcmp.ipv4 forwarding false
par DummyScenario.ualcmp.ipv4 multicastForwarding false
par DummyScenario.ualcmp.ipv4 interfaceTableModule "\"DummyScenario.ualcmp.interfaceTable\""
par DummyScenario.ualcmp.ipv4 displayStringTextFormat "\"%i\""
par DummyScenario.ualcmp.ualcmpApp typename "\"simu5g.nodes.mec.UALCMP.UALCMPApp\""
par DummyScenario.ualcmp.ualcmpApp serviceName "\"UALCMP\""
par DummyScenario.ualcmp.ualcmpApp requestQueueSize 0
par DummyScenario.ualcmp.ualcmpApp subscriptionQueueSize 0
par DummyScenario.ualcmp.ualcmpApp localAddress "\"\""
par DummyScenario.ualcmp.ualcmpApp localPort 1000
par DummyScenario.ualcmp.ualcmpApp dataTransferMode "\"bytestream\""
attr enum bytecount,object,bytestream
par DummyScenario.ualcmp.ualcmpApp requestServiceTime 5e-06s
attr unit s
par DummyScenario.ualcmp.ualcmpApp subscriptionServiceTime 1e-05s
attr unit s
par DummyScenario.ualcmp.ualcmpApp serverThreadClass "\"simu5g.nodes.mec.MECPlatform.MECServices.MECServiceBase.SocketManager\""
par DummyScenario.ualcmp.ualcmpApp destPort 4000
par DummyScenario.ualcmp.ualcmpApp tos -1
par DummyScenario.ualcmp.udp typename "\"inet.transportlayer.udp.Udp\""
par DummyScenario.ualcmp.udp interfaceTableModule "\"DummyScenario.ualcmp.interfaceTable\""
par DummyScenario.ualcmp.udp icmpModule "\"^.ipv4.icmp\""
par DummyScenario.ualcmp.udp icmpv6Module "\"^.ipv6.icmpv6\""
par DummyScenario.ualcmp.udp crcMode "\"declared\""
attr enum disabled,declared,computed
par DummyScenario.ualcmp.tcp.conn-19 typename "\"inet.transportlayer.tcp.TcpConnection\""
par DummyScenario.ualcmp.tcp typename "\"inet.transportlayer.tcp.Tcp\""
par DummyScenario.ualcmp.tcp crcMode "\"declared\""
attr enum declared,computed
par DummyScenario.ualcmp.tcp advertisedWindow 65535
par DummyScenario.ualcmp.tcp delayedAcksEnabled false
par DummyScenario.ualcmp.tcp nagleEnabled true
par DummyScenario.ualcmp.tcp limitedTransmitEnabled false
par DummyScenario.ualcmp.tcp increasedIWEnabled false
par DummyScenario.ualcmp.tcp sackSupport true
par DummyScenario.ualcmp.tcp windowScalingSupport false
par DummyScenario.ualcmp.tcp windowScalingFactor -1
par DummyScenario.ualcmp.tcp timestampSupport false
par DummyScenario.ualcmp.tcp mss 536
par DummyScenario.ualcmp.tcp msl 120s
attr unit s
par DummyScenario.ualcmp.tcp tcpAlgorithmClass "\"TcpReno\""
attr enum TcpVegas,TcpWestwood,TcpNewReno,TcpReno,TcpTahoe,TcpNoCongestionControl
par DummyScenario.ualcmp.tcp useDataNotification false
par DummyScenario.ualcmp.tcp dupthresh 3
par DummyScenario.ualcmp.tcp initialSsthresh 4294967295
par DummyScenario.ualcmp.tcp stopOperationExtraTime 0s
attr unit s
par DummyScenario.ualcmp.tcp stopOperationTimeout 2s
attr unit s
par DummyScenario.ualcmp.tcp ecnWillingness false
par DummyScenario.ualcmp.tcp dctcpGamma 0.0625
par DummyScenario.ualcmp.at typename "\"inet.common.MessageDispatcher\""
par DummyScenario.ualcmp.at displayStringTextFormat "\"processed %p pk (%l)\""
par DummyScenario.ualcmp.tn typename "\"inet.common.MessageDispatcher\""
par DummyScenario.ualcmp.tn displayStringTextFormat "\"processed %p pk (%l)\""
par DummyScenario.ualcmp.nl typename "\"inet.common.MessageDispatcher\""
par DummyScenario.ualcmp.nl displayStringTextFormat "\"processed %p pk (%l)\""
par DummyScenario.ualcmp typename "\"simu5g.nodes.mec.UALCMP.UALCMP\""
par DummyScenario.ualcmp nodeType "\"MECOrchestrator\""
par DummyScenario.ualcmp gateway "\"upf\""
par DummyScenario.ualcmp mecOrchestratorHostname "\"mecOrchestrator\""
par DummyScenario.ualcmp hasIpv4 true
par DummyScenario.ualcmp hasIpv6 false
par DummyScenario.ualcmp numExtEthInterfaces 0
par DummyScenario typename "\"syntetictracegenerator.simulations.Villarosa.DummyScenario\""
par DummyScenario playgroundSizeX 20000m
attr unit m
par DummyScenario playgroundSizeY 20000m
attr unit m
par DummyScenario playgroundSizeZ 50m
attr unit m

