version 3
run Test-0-20220503-17:14:13-47793
attr configname Test
attr datetime 20220503-17:14:13
attr datetimef 20220503-171413
attr experiment Test
attr inifile omnetpp.ini
attr iterationvars ""
attr iterationvarsd ""
attr iterationvarsf ""
attr measurement ""
attr network syntetictracegenerator.simulations.Villarosa_edge.singleMecHost
attr processid 47793
attr repetition 0
attr replication #0
attr resultdir mec_results
attr runnumber 0
attr seedset 0
config image-path ../../images:../../../../../neworkspace/inet4.3/images:../../../../Simu5G/images:../../../../../workspace/veins/subprojects/veins_inet/images:../../../../../workspace/veins/images
config network syntetictracegenerator.simulations.Villarosa_edge.singleMecHost
config *.mecHost.mecPlatformManager.mecOrchestrator "\"mecOrchestrator\""
config **.mecOrchestrator.mecHostList "\"mecHost\""
config image-path ../../../images
config cmdenv-express-mode true
config cmdenv-autoflush true
config result-dir mec_results
config num-rngs 3
config repeat 15
config seed-set 0
config output-scalar-file mec_results/Test/0.sca
config output-vector-file mec_results/Test/0.vec
config **.routingRecorder.enabled false
config **.scalar-recording false
config **.vector-recording false
config debug-on-errors true
config print-undisposed true
config sim-time-limit 120s
config warmup-period 10s
config *.playgroundSizeX 2200m
config *.playgroundSizeY 1600m
config *.playgroundSizeZ 50m
config *.configurator.config "xmldoc(\"./demo.xml\")"
config *.gNodeB*.cellInfo.broadcastMessageInterval 0.5s
config **.fbPeriod 40
config **.amcType "\"NRAmc\""
config **.pilotMode "\"ROBUST_CQI\""
config **.targetBler 0.01
config **.blerShift 5
config *.carrierAggregation.numComponentCarriers 1
config *.carrierAggregation.componentCarrier[0].numBands 25
config *.*.cellularNic.LteChannelModelType "\"NRChannelModel\""
config *.gNodeB1.cellularNic.numCarriers 1
config *.gNodeB1.cellularNic.channelModel[0].componentCarrierIndex 0
config *.car[*].cellularNic.numCarriers 1
config *.car[*].cellularNic.nrChannelModel[0].componentCarrierIndex 0
config **.mobility.constraintAreaMinZ 0m
config **.mobility.constraintAreaMaxZ 0m
config *.car[*].mobility.initFromDisplayString false
config *.car[*].mobilityType "\"LinearMobility\""
config *.car[*].mobility.updateInterval 0.05s
config *.gNodeB1.mobility.initFromDisplayString true
config **.car[0].mobility.initialX 180m
config **.car[0].mobility.initialY 50m
config **.car[0].mobility.initialMovementHeading 90deg
config **.car[0].mobility.speed 10mps
config **.car[1].mobility.initialX 180m
config **.car[1].mobility.initialY 100m
config **.car[1].mobility.initialMovementHeading 90deg
config **.car[1].mobility.speed 10mps
config **.car[2].mobility.initialX 180m
config **.car[2].mobility.initialY 150m
config **.car[2].mobility.initialMovementHeading 90deg
config **.car[2].mobility.speed 10mps
config *.car[*].cellularNic.nrPhy.dynamicCellAssociation true
config *.car[*].masterId 0
config *.car[*].macCellId 0
config *.car[*].nrMasterId 1
config *.car[*].nrMacCellId 1
config **.gNodeB1.macCellId 1
config **.gNodeB1.macNodeId 1
config **.gNodeB2.macCellId 2
config **.gNodeB2.macNodeId 2
config *.car[*].cellularNic.nrPhy.enableHandover true
config *.gNodeB*.cellularNic.phy.enableHandover true
config *.gNodeB*.cellularNic.phy.handoverLatency 50ms
config *.gNodeB*.numX2Apps 1
config *.gNodeB*.x2App[*].server.localPort "5000 + ancestorIndex(1)"
config *.gNodeB1.x2App[0].client.connectAddress "\"gNodeB2%x2ppp0\""
config *.gNodeB2.x2App[0].client.connectAddress "\"gNodeB1%x2ppp0\""
config **.sctp.nagleEnabled false
config **.sctp.enableHeartbeats false
config **.tcp.typename Tcp
config **.tcp.advertisedWindow 65535
config **.tcp.tcpAlgorithmClass "\"TcpReno\""
config **.tcp.sackSupport true
config **.hasRNISupport true
config *.car[*].numApps 2
config *.car[*].app[0].typename DeviceApp
config *.car[*].app[0].localPort 4500
config *.car[*].app[0].UALCMPAddress "\"ualcmp\""
config *.car[*].app[0].UALCMPPort 1000
config *.car[*].app[0].appPackageSource "\"ApplicationDescriptors/PingPongApp.json\""
config *.car[*].app[1].typename UEPingPongApp
config *.car[*].app[1].deviceAppAddress "\"car[\"+string(ancestorIndex(1))+\"]\""
config *.car[*].app[1].deviceAppPort 4500
config *.car[*].app[1].startTime 1s
config *.car[*].app[1].stopTime 110s
config **.numCars 3
config *.car[*].app[1].numCars 3
config *.mecHost.maxMECApps 100
config *.mecHost.maxRam 32GB
config *.mecHost.maxDisk 100TB
config *.mecHost.maxCpuSpeed 400000
config *.mecHost.eNBList "\"gNodeB1\""
config *.mecHost.mecPlatform.numMecServices 1
config *.mecHost.mecPlatform.mecService[0].typename LocationService
config *.mecHost.mecPlatform.mecService[0].localAddress "\"mecHost.mecPlatform\""
config *.mecHost.mecPlatform.mecService[0].localPort 10020
config *.mecHost.mecPlatform.mecService[0].rng-0 0
config *.mecHost.mecPlatform.mecService[0].rng-1 1
config *.mecHost.mecPlatform.mecService[0].requestServiceTime 100us
config *.mecHost.mecPlatform.mecService[0].subscriptionServiceTime 11us
config *.mecHost.mecPlatform.serviceRegistry.localAddress "\"mecHost.mecPlatform\""
config *.mecHost.mecPlatform.serviceRegistry.localPort 10021
config *.mecHost.mecPlatform.serviceRegistry.rng-0 0
config *.mecHost.mecPlatform.serviceRegistry.rng-1 1
config **.gNodeB*.mecHost "\"mecHost\""

