version 3
run Test-0-20220314-15:41:33-31657
attr configname Test
attr datetime 20220314-15:41:33
attr datetimef 20220314-154133
attr experiment Test
attr inifile omnetpp.ini
attr iterationvars ""
attr iterationvarsd ""
attr iterationvarsf ""
attr measurement ""
attr network simu5g.simulations.NR.mec.singleMecHost.singleMecHost
attr processid 31657
attr repetition 0
attr replication #0
attr resultdir mec_results
attr runnumber 0
attr seedset 0
config image-path ../../images:../../../../../Documents/WORKSPACE/software/workspace/inet4.3/images:../../../../../Documents/WORKSPACE/software/workspace/Simu5G/images:../../../../../Documents/WORKSPACE/software/workspace/veins/subprojects/veins_inet/images:../../../../../Documents/WORKSPACE/software/workspace/veins/images
config network simu5g.simulations.NR.mec.singleMecHost.singleMecHost
config *.mecHost.mecPlatformManager.mecOrchestrator "\"mecOrchestrator\""
config **.mecOrchestrator.mecHostList "\"mecHost\""
config image-path ../../../images
config cmdenv-express-mode true
config cmdenv-autoflush true
config result-dir mec_results
config num-rngs 3
config repeat 15
config seed-set 0
config output-scalar-file mec_results/Test/0.sca
config output-vector-file mec_results/Test/0.vec
config **.routingRecorder.enabled false
config **.scalar-recording false
config **.vector-recording false
config debug-on-errors false
config print-undisposed true
config sim-time-limit 38s
config warmup-period 10s
config *.playgroundSizeX 1100m
config *.playgroundSizeY 800m
config *.playgroundSizeZ 50m
config *.configurator.config "xmldoc(\"./demo.xml\")"
config *.gNodeB*.cellInfo.broadcastMessageInterval 0.5s
config **.fbPeriod 40
config **.amcType "\"NRAmc\""
config **.pilotMode "\"ROBUST_CQI\""
config **.targetBler 0.01
config **.blerShift 5
config *.carrierAggregation.numComponentCarriers 1
config *.carrierAggregation.componentCarrier[0].numBands 25
config *.*.cellularNic.LteChannelModelType "\"NRChannelModel\""
config *.gNodeB1.cellularNic.numCarriers 1
config *.gNodeB1.cellularNic.channelModel[0].componentCarrierIndex 0
config *.car[*].cellularNic.numCarriers 1
config *.car[*].cellularNic.nrChannelModel[0].componentCarrierIndex 0
config **.mobility.constraintAreaMinZ 0m
config **.mobility.constraintAreaMaxZ 0m
config *.car[*].mobility.initFromDisplayString false
config *.car[*].mobilityType "\"LinearMobility\""
config *.car[*].mobility.updateInterval 0.05s
config *.gNodeB1.mobility.initFromDisplayString true
config **.numCars 3
config **.car[0].mobility.initialX 180m
config **.car[0].mobility.initialY 50m
config **.car[0].mobility.initialMovementHeading 90deg
config **.car[0].mobility.speed 10mps
config **.car[1].mobility.initialX 180m
config **.car[1].mobility.initialY 100m
config **.car[1].mobility.initialMovementHeading 90deg
config **.car[1].mobility.speed 10mps
config **.car[2].mobility.initialX 180m
config **.car[2].mobility.initialY 150m
config **.car[2].mobility.initialMovementHeading 90deg
config **.car[2].mobility.speed 10mps
config **.car[*].masterId 1
config **.car[*].macCellId 1
config **.car[*].nrMasterId 1
config **.car[*].nrMacCellId 1
config **.gNodeB1.macCellId 1
config **.gNodeB1.macNodeId 1
config **.tcp.typename Tcp
config **.tcp.advertisedWindow 65535
config **.tcp.tcpAlgorithmClass "\"TcpReno\""
config **.tcp.sackSupport true
config **.hasRNISupport true
config *.car[*].numApps 2
config *.car[*].app[0].typename DeviceApp
config *.car[*].app[0].localPort 4500
config *.car[*].app[0].UALCMPAddress "\"ualcmp\""
config *.car[*].app[0].UALCMPPort 1000
config *.car[*].app[0].appPackageSource "\"ApplicationDescriptors/PublisherApp.json\""
config *.car[*].app[1].typename UEPublisherApp
config *.car[*].app[1].deviceAppAddress "\"car[\"+string(ancestorIndex(1))+\"]\""
config *.car[*].app[1].deviceAppPort 4500
config *.car[*].app[1].startTime 1s
config *.car[*].app[1].stopTime 30s
config *.mecHost.maxMECApps 100
config *.mecHost.maxRam 32GB
config *.mecHost.maxDisk 100TB
config *.mecHost.maxCpuSpeed 400000
config *.mecHost.eNBList "\"gNodeB1\""
config *.mecHost.mecPlatform.numMecServices 1
config *.mecHost.mecPlatform.mecService[0].typename LocationService
config *.mecHost.mecPlatform.mecService[0].localAddress "\"mecHost.mecPlatform\""
config *.mecHost.mecPlatform.mecService[0].localPort 10020
config *.mecHost.mecPlatform.mecService[0].rng-0 0
config *.mecHost.mecPlatform.mecService[0].rng-1 1
config *.mecHost.mecPlatform.mecService[0].requestServiceTime 100us
config *.mecHost.mecPlatform.mecService[0].subscriptionServiceTime 11us
config *.mecHost.mecPlatform.serviceRegistry.localAddress "\"mecHost.mecPlatform\""
config *.mecHost.mecPlatform.serviceRegistry.localPort 10021
config *.mecHost.mecPlatform.serviceRegistry.rng-0 0
config *.mecHost.mecPlatform.serviceRegistry.rng-1 1
config **.gNodeB*.mecHost "\"mecHost\""

par singleMecHost.upf.pppg$o[0].channel typename "\"inet.node.ethernet.Eth10G\""
par singleMecHost.upf.pppg$o[0].channel disabled false
par singleMecHost.upf.pppg$o[0].channel delay 5e-08s
attr unit s
par singleMecHost.upf.pppg$o[0].channel datarate 1e+10bps
attr unit bps
par singleMecHost.upf.pppg$o[0].channel ber 0
par singleMecHost.upf.pppg$o[0].channel per 0
par singleMecHost.upf.pppg$o[0].channel length 10m
attr unit m
par singleMecHost.gNodeB1.ppp$o.channel typename "\"inet.node.ethernet.Eth10G\""
par singleMecHost.gNodeB1.ppp$o.channel disabled false
par singleMecHost.gNodeB1.ppp$o.channel delay 5e-08s
attr unit s
par singleMecHost.gNodeB1.ppp$o.channel datarate 1e+10bps
attr unit bps
par singleMecHost.gNodeB1.ppp$o.channel ber 0
par singleMecHost.gNodeB1.ppp$o.channel per 0
par singleMecHost.gNodeB1.ppp$o.channel length 10m
attr unit m
par singleMecHost.ualcmp.ppp$o[0].channel typename "\"inet.node.ethernet.Eth10G\""
par singleMecHost.ualcmp.ppp$o[0].channel disabled false
par singleMecHost.ualcmp.ppp$o[0].channel delay 5e-08s
attr unit s
par singleMecHost.ualcmp.ppp$o[0].channel datarate 1e+10bps
attr unit bps
par singleMecHost.ualcmp.ppp$o[0].channel ber 0
par singleMecHost.ualcmp.ppp$o[0].channel per 0
par singleMecHost.ualcmp.ppp$o[0].channel length 10m
attr unit m
par singleMecHost.upf.filterGate$o.channel typename "\"inet.node.ethernet.Eth10G\""
par singleMecHost.upf.filterGate$o.channel disabled false
par singleMecHost.upf.filterGate$o.channel delay 5e-08s
attr unit s
par singleMecHost.upf.filterGate$o.channel datarate 1e+10bps
attr unit bps
par singleMecHost.upf.filterGate$o.channel ber 0
par singleMecHost.upf.filterGate$o.channel per 0
par singleMecHost.upf.filterGate$o.channel length 10m
attr unit m
par singleMecHost.mecHost.pppENB$o[0].channel typename "\"inet.node.ethernet.Eth10G\""
par singleMecHost.mecHost.pppENB$o[0].channel disabled false
par singleMecHost.mecHost.pppENB$o[0].channel delay 5e-08s
attr unit s
par singleMecHost.mecHost.pppENB$o[0].channel datarate 1e+10bps
attr unit bps
par singleMecHost.mecHost.pppENB$o[0].channel ber 0
par singleMecHost.mecHost.pppENB$o[0].channel per 0
par singleMecHost.mecHost.pppENB$o[0].channel length 10m
attr unit m
par singleMecHost.gNodeB1.pppMEHost$o.channel typename "\"inet.node.ethernet.Eth10G\""
par singleMecHost.gNodeB1.pppMEHost$o.channel disabled false
par singleMecHost.gNodeB1.pppMEHost$o.channel delay 5e-08s
attr unit s
par singleMecHost.gNodeB1.pppMEHost$o.channel datarate 1e+10bps
attr unit bps
par singleMecHost.gNodeB1.pppMEHost$o.channel ber 0
par singleMecHost.gNodeB1.pppMEHost$o.channel per 0
par singleMecHost.gNodeB1.pppMEHost$o.channel length 10m
attr unit m
par singleMecHost.routingRecorder typename "\"inet.networklayer.ipv4.RoutingTableRecorder\""
par singleMecHost.routingRecorder enabled false
par singleMecHost.configurator typename "\"inet.networklayer.configurator.ipv4.Ipv4NetworkConfigurator\""
par singleMecHost.configurator minLinkWeight 0.001
par singleMecHost.configurator configureIsolatedNetworksSeparatly false
par singleMecHost.configurator config "<config>...</config> at /home/skela/git/SyntheticTraceGenerator/SynteticTraceGenerator/simulations/Villarosa_edge/demo.xml:1"
par singleMecHost.configurator assignAddresses true
par singleMecHost.configurator assignUniqueAddresses true
par singleMecHost.configurator assignDisjunctSubnetAddresses true
par singleMecHost.configurator addStaticRoutes true
par singleMecHost.configurator addDefaultRoutes true
par singleMecHost.configurator addSubnetRoutes true
par singleMecHost.configurator addDirectRoutes true
par singleMecHost.configurator optimizeRoutes true
par singleMecHost.configurator dumpTopology false
par singleMecHost.configurator dumpLinks false
par singleMecHost.configurator dumpAddresses false
par singleMecHost.configurator dumpRoutes false
par singleMecHost.configurator dumpConfig "\"\""
par singleMecHost.channelControl typename "\"simu5g.world.radio.LteChannelControl\""
par singleMecHost.channelControl coreDebug false
par singleMecHost.channelControl pMax 20mW
attr unit mW
par singleMecHost.channelControl sat -110dBm
attr unit dBm
par singleMecHost.channelControl alpha 2
par singleMecHost.channelControl carrierFrequency 2.4e+09Hz
attr unit Hz
par singleMecHost.channelControl numChannels 1
par singleMecHost.channelControl propagationModel "\"FreeSpaceModel\""
attr enum FreeSpaceModel,TwoRayGroundModel,RiceModel,RayleighModel,NakagamiModel,LogNormalShadowingModel
par singleMecHost.binder typename "\"simu5g.common.binder.Binder\""
par singleMecHost.binder blerShift 5
par singleMecHost.binder maxDataRatePerRb 1.16Mbps
attr unit Mbps
par singleMecHost.binder printTrafficGeneratorConfig false
par singleMecHost.carrierAggregation.componentCarrier[0] typename "\"simu5g.common.carrierAggregation.ComponentCarrier\""
par singleMecHost.carrierAggregation.componentCarrier[0] carrierFrequency 2GHz
attr unit GHz
par singleMecHost.carrierAggregation.componentCarrier[0] numBands 25
par singleMecHost.carrierAggregation.componentCarrier[0] numerologyIndex 0
par singleMecHost.carrierAggregation.componentCarrier[0] useTdd false
par singleMecHost.carrierAggregation.componentCarrier[0] tddNumSymbolsDl 7
par singleMecHost.carrierAggregation.componentCarrier[0] tddNumSymbolsUl 7
par singleMecHost.carrierAggregation typename "\"simu5g.common.carrierAggregation.CarrierAggregation\""
par singleMecHost.carrierAggregation numComponentCarriers 1
par singleMecHost.upf.pppg$i[0].channel typename "\"ned.IdealChannel\""
par singleMecHost.upf.ppp[0].phys$o.channel typename "\"ned.IdealChannel\""
par singleMecHost.upf.interfaceTable typename "\"inet.networklayer.common.InterfaceTable\""
par singleMecHost.upf.interfaceTable displayAddresses false
par singleMecHost.upf.li typename "\"inet.common.MessageDispatcher\""
par singleMecHost.upf.li displayStringTextFormat "\"processed %p pk (%l)\""
par singleMecHost.upf.lo[0].upperLayerIn.channel typename "\"ned.IdealChannel\""
par singleMecHost.upf.lo[0].lo.upperLayerOut.channel typename "\"ned.IdealChannel\""
par singleMecHost.upf.lo[0].lo typename "\"inet.linklayer.loopback.Loopback\""
par singleMecHost.upf.lo[0].lo interfaceTableModule "\"singleMecHost.upf.interfaceTable\""
par singleMecHost.upf.lo[0].lo mtu 4470B
attr unit B
par singleMecHost.upf.lo[0] typename "\"inet.linklayer.loopback.LoopbackInterface\""
par singleMecHost.upf.lo[0] displayStringTextFormat "\"%a (%i)\\n%m\""
par singleMecHost.upf.lo[0] recordPcap false
par singleMecHost.upf.lo[0] numPcapRecorders 0
par singleMecHost.upf.lo[0] interfaceTableModule "\"singleMecHost.upf.interfaceTable\""
par singleMecHost.upf.ppp[0].upperLayerIn.channel typename "\"ned.IdealChannel\""
par singleMecHost.upf.ppp[0].phys$i.channel typename "\"ned.IdealChannel\""
par singleMecHost.upf.ppp[0].ppp.phys$o.channel typename "\"ned.IdealChannel\""
par singleMecHost.upf.ppp[0].ppp.upperLayerOut.channel typename "\"ned.IdealChannel\""
par singleMecHost.upf.ppp[0].ppp.queue typename "\"inet.queueing.queue.DropTailQueue\""
par singleMecHost.upf.ppp[0].ppp.queue displayStringTextFormat "\"contains %p pk (%l) pushed %u\\npulled %o removed %r dropped %d\""
par singleMecHost.upf.ppp[0].ppp.queue packetCapacity 10000
par singleMecHost.upf.ppp[0].ppp.queue dataCapacity -1b
attr unit b
par singleMecHost.upf.ppp[0].ppp.queue dropperClass "\"inet::queueing::PacketAtCollectionEndDropper\""
par singleMecHost.upf.ppp[0].ppp.queue comparatorClass "\"\""
par singleMecHost.upf.ppp[0].ppp.queue bufferModule "\"\""
par singleMecHost.upf.ppp[0].ppp typename "\"inet.linklayer.ppp.Ppp\""
par singleMecHost.upf.ppp[0].ppp interfaceTableModule "\"singleMecHost.upf.interfaceTable\""
par singleMecHost.upf.ppp[0].ppp displayStringTextFormat "\"rate: %b\\nsent: %s, rcvd: %r\\nqueue: %q, drop: %d\""
par singleMecHost.upf.ppp[0].ppp sendRawBytes false
par singleMecHost.upf.ppp[0].ppp mtu 4470B
attr unit B
par singleMecHost.upf.ppp[0].ppp stopOperationExtraTime -1s
attr unit s
par singleMecHost.upf.ppp[0].ppp stopOperationTimeout 2s
attr unit s
par singleMecHost.upf.ppp[0] typename "\"inet.linklayer.ppp.PppInterface\""
par singleMecHost.upf.ppp[0] displayStringTextFormat "\"%a (%i)\\n%m\""
par singleMecHost.upf.ppp[0] recordPcap false
par singleMecHost.upf.ppp[0] numPcapRecorders 0
par singleMecHost.upf.ppp[0] interfaceTableModule "\"singleMecHost.upf.interfaceTable\""
par singleMecHost.upf.ipv4.transportIn.channel typename "\"ned.IdealChannel\""
par singleMecHost.upf.ipv4.up.out[0].channel typename "\"ned.IdealChannel\""
par singleMecHost.upf.ipv4.lp.out[2].channel typename "\"ned.IdealChannel\""
par singleMecHost.upf.ipv4.ifIn.channel typename "\"ned.IdealChannel\""
par singleMecHost.upf.ipv4.configurator typename "\"inet.networklayer.configurator.ipv4.Ipv4NodeConfigurator\""
par singleMecHost.upf.ipv4.configurator interfaceTableModule "\"singleMecHost.upf.interfaceTable\""
par singleMecHost.upf.ipv4.configurator routingTableModule "\"singleMecHost.upf.ipv4.routingTable\""
par singleMecHost.upf.ipv4.configurator networkConfiguratorModule "\"configurator\""
par singleMecHost.upf.ipv4.configurator configureRoutingTable true
par singleMecHost.upf.ipv4.routingTable typename "\"inet.networklayer.ipv4.Ipv4RoutingTable\""
par singleMecHost.upf.ipv4.routingTable interfaceTableModule "\"singleMecHost.upf.interfaceTable\""
par singleMecHost.upf.ipv4.routingTable routerId "\"auto\""
par singleMecHost.upf.ipv4.routingTable netmaskRoutes "\"*\""
par singleMecHost.upf.ipv4.routingTable forwarding true
par singleMecHost.upf.ipv4.routingTable multicastForwarding false
par singleMecHost.upf.ipv4.routingTable useAdminDist false
par singleMecHost.upf.ipv4.routingTable routingFile "\"\""
par singleMecHost.upf.ipv4.natTable typename "\"inet.networklayer.ipv4.Ipv4NatTable\""
par singleMecHost.upf.ipv4.natTable networkProtocolModule "\"^.ip\""
par singleMecHost.upf.ipv4.natTable config "<config/> at content:1"
par singleMecHost.upf.ipv4.up typename "\"inet.common.MessageDispatcher\""
par singleMecHost.upf.ipv4.up displayStringTextFormat "\"processed %p pk (%l)\""
par singleMecHost.upf.ipv4.igmp typename "\"inet.networklayer.ipv4.Igmpv2\""
par singleMecHost.upf.ipv4.igmp interfaceTableModule "\"singleMecHost.upf.interfaceTable\""
par singleMecHost.upf.ipv4.igmp routingTableModule "\"singleMecHost.upf.ipv4.routingTable\""
par singleMecHost.upf.ipv4.igmp crcMode "\"declared\""
attr enum declared,computed
par singleMecHost.upf.ipv4.igmp enabled true
par singleMecHost.upf.ipv4.igmp robustnessVariable 2
par singleMecHost.upf.ipv4.igmp queryInterval 125s
attr unit s
par singleMecHost.upf.ipv4.igmp queryResponseInterval 10s
attr unit s
par singleMecHost.upf.ipv4.igmp groupMembershipInterval 260s
attr unit s
par singleMecHost.upf.ipv4.igmp otherQuerierPresentInterval 255s
attr unit s
par singleMecHost.upf.ipv4.igmp startupQueryInterval 31.25s
attr unit s
par singleMecHost.upf.ipv4.igmp startupQueryCount 2
par singleMecHost.upf.ipv4.igmp lastMemberQueryInterval 1s
attr unit s
par singleMecHost.upf.ipv4.igmp lastMemberQueryCount 2
par singleMecHost.upf.ipv4.igmp unsolicitedReportInterval 10s
attr unit s
par singleMecHost.upf.ipv4.icmp typename "\"inet.networklayer.ipv4.Icmp\""
par singleMecHost.upf.ipv4.icmp interfaceTableModule "\"singleMecHost.upf.interfaceTable\""
par singleMecHost.upf.ipv4.icmp routingTableModule "\"singleMecHost.upf.ipv4.routingTable\""
par singleMecHost.upf.ipv4.icmp crcMode "\"declared\""
attr enum declared,computed
par singleMecHost.upf.ipv4.icmp quoteLength 8B
attr unit B
par singleMecHost.upf.ipv4.mp typename "\"inet.common.MessageDispatcher\""
par singleMecHost.upf.ipv4.mp displayStringTextFormat "\"processed %p pk (%l)\""
par singleMecHost.upf.ipv4.ip typename "\"inet.networklayer.ipv4.Ipv4\""
par singleMecHost.upf.ipv4.ip interfaceTableModule "\"singleMecHost.upf.interfaceTable\""
par singleMecHost.upf.ipv4.ip routingTableModule "\"singleMecHost.upf.ipv4.routingTable\""
par singleMecHost.upf.ipv4.ip arpModule "\"singleMecHost.upf.ipv4.arp\""
par singleMecHost.upf.ipv4.ip icmpModule "\"singleMecHost.upf.ipv4.icmp\""
par singleMecHost.upf.ipv4.ip crcMode "\"declared\""
attr enum declared,computed
par singleMecHost.upf.ipv4.ip timeToLive 32
par singleMecHost.upf.ipv4.ip multicastTimeToLive 32
par singleMecHost.upf.ipv4.ip fragmentTimeout 60s
attr unit s
par singleMecHost.upf.ipv4.ip limitedBroadcast false
par singleMecHost.upf.ipv4.ip directBroadcastInterfaces "\"\""
par singleMecHost.upf.ipv4.arp typename "\"inet.networklayer.arp.ipv4.Arp\""
par singleMecHost.upf.ipv4.arp interfaceTableModule "\"singleMecHost.upf.interfaceTable\""
par singleMecHost.upf.ipv4.arp routingTableModule "\"singleMecHost.upf.ipv4.routingTable\""
par singleMecHost.upf.ipv4.arp retryTimeout 1s
attr unit s
par singleMecHost.upf.ipv4.arp retryCount 3
par singleMecHost.upf.ipv4.arp cacheTimeout 120s
attr unit s
par singleMecHost.upf.ipv4.arp proxyArpInterfaces "\"*\""
par singleMecHost.upf.ipv4.lp typename "\"inet.common.MessageDispatcher\""
par singleMecHost.upf.ipv4.lp displayStringTextFormat "\"processed %p pk (%l)\""
par singleMecHost.upf.ipv4 typename "\"inet.networklayer.ipv4.Ipv4NetworkLayer\""
par singleMecHost.upf.ipv4 forwarding true
par singleMecHost.upf.ipv4 multicastForwarding false
par singleMecHost.upf.ipv4 interfaceTableModule "\"singleMecHost.upf.interfaceTable\""
par singleMecHost.upf.ipv4 displayStringTextFormat "\"%i\""
par singleMecHost.upf.nl typename "\"inet.common.MessageDispatcher\""
par singleMecHost.upf.nl displayStringTextFormat "\"processed %p pk (%l)\""
par singleMecHost.upf.pppIf.upperLayerIn.channel typename "\"ned.IdealChannel\""
par singleMecHost.upf.pppIf.phys$i.channel typename "\"ned.IdealChannel\""
par singleMecHost.upf.pppIf.ppp.phys$o.channel typename "\"ned.IdealChannel\""
par singleMecHost.upf.pppIf.ppp.upperLayerOut.channel typename "\"ned.IdealChannel\""
par singleMecHost.upf.pppIf.ppp.queue typename "\"inet.queueing.queue.DropTailQueue\""
par singleMecHost.upf.pppIf.ppp.queue displayStringTextFormat "\"contains %p pk (%l) pushed %u\\npulled %o removed %r dropped %d\""
par singleMecHost.upf.pppIf.ppp.queue packetCapacity 10000
par singleMecHost.upf.pppIf.ppp.queue dataCapacity -1b
attr unit b
par singleMecHost.upf.pppIf.ppp.queue dropperClass "\"inet::queueing::PacketAtCollectionEndDropper\""
par singleMecHost.upf.pppIf.ppp.queue comparatorClass "\"\""
par singleMecHost.upf.pppIf.ppp.queue bufferModule "\"\""
par singleMecHost.upf.pppIf.ppp typename "\"inet.linklayer.ppp.Ppp\""
par singleMecHost.upf.pppIf.ppp interfaceTableModule "\"singleMecHost.upf.interfaceTable\""
par singleMecHost.upf.pppIf.ppp displayStringTextFormat "\"rate: %b\\nsent: %s, rcvd: %r\\nqueue: %q, drop: %d\""
par singleMecHost.upf.pppIf.ppp sendRawBytes false
par singleMecHost.upf.pppIf.ppp mtu 4470B
attr unit B
par singleMecHost.upf.pppIf.ppp stopOperationExtraTime -1s
attr unit s
par singleMecHost.upf.pppIf.ppp stopOperationTimeout 2s
attr unit s
par singleMecHost.upf.pppIf typename "\"inet.linklayer.ppp.PppInterface\""
par singleMecHost.upf.pppIf displayStringTextFormat "\"%a (%i)\\n%m\""
par singleMecHost.upf.pppIf recordPcap false
par singleMecHost.upf.pppIf numPcapRecorders 0
par singleMecHost.upf.pppIf interfaceTableModule "\"singleMecHost.upf.interfaceTable\""
par singleMecHost.upf.udp typename "\"inet.transportlayer.udp.Udp\""
par singleMecHost.upf.udp interfaceTableModule "\"singleMecHost.upf.interfaceTable\""
par singleMecHost.upf.udp icmpModule "\"^.ipv4.icmp\""
par singleMecHost.upf.udp icmpv6Module "\"^.ipv6.icmpv6\""
par singleMecHost.upf.udp crcMode "\"declared\""
attr enum disabled,declared,computed
par singleMecHost.upf.trafficFlowFilter typename "\"simu5g.corenetwork.trafficFlowFilter.TrafficFlowFilter\""
par singleMecHost.upf.trafficFlowFilter ownerType "\"UPF\""
par singleMecHost.upf.trafficFlowFilter fastForwarding true
par singleMecHost.upf.gtp_user typename "\"simu5g.corenetwork.gtp.GtpUser\""
par singleMecHost.upf.gtp_user interfaceTableModule "\"singleMecHost.upf.interfaceTable\""
par singleMecHost.upf.gtp_user ipOutInterface "\"\""
par singleMecHost.upf.gtp_user localPort 31
par singleMecHost.upf.gtp_user tunnelPeerPort 31
par singleMecHost.upf.gtp_user filter true
par singleMecHost.upf.tn typename "\"inet.common.MessageDispatcher\""
par singleMecHost.upf.tn displayStringTextFormat "\"processed %p pk (%l)\""
par singleMecHost.upf.at typename "\"inet.common.MessageDispatcher\""
par singleMecHost.upf.at displayStringTextFormat "\"processed %p pk (%l)\""
par singleMecHost.upf typename "\"simu5g.nodes.Upf\""
par singleMecHost.upf hasStatus false
par singleMecHost.upf osgModel "\"\""
par singleMecHost.upf osgModelColor "\"\""
par singleMecHost.upf canvasImage "\"\""
par singleMecHost.upf canvasImageColor "\"\""
par singleMecHost.upf recordPcap false
par singleMecHost.upf numPcapRecorders 0
par singleMecHost.upf numLoInterfaces 1
par singleMecHost.upf numWlanInterfaces 0
par singleMecHost.upf numEthInterfaces 0
par singleMecHost.upf numPppInterfaces 0
par singleMecHost.upf numTunInterfaces 0
par singleMecHost.upf numVirtInterfaces 0
par singleMecHost.upf hasIpv4 true
par singleMecHost.upf hasIpv6 false
par singleMecHost.upf hasGn false
par singleMecHost.upf forwarding true
par singleMecHost.upf multicastForwarding false
par singleMecHost.upf nodeType "\"UPF\""
par singleMecHost.gNodeB1.interfaceTable typename "\"inet.networklayer.common.InterfaceTable\""
par singleMecHost.gNodeB1.interfaceTable displayAddresses false
par singleMecHost.gNodeB1.mobility typename "\"inet.mobility.static.StationaryMobility\""
par singleMecHost.gNodeB1.mobility subjectModule "\"^\""
par singleMecHost.gNodeB1.mobility coordinateSystemModule "\"\""
par singleMecHost.gNodeB1.mobility displayStringTextFormat "\"p: %p\\nv: %v\""
par singleMecHost.gNodeB1.mobility updateDisplayString true
par singleMecHost.gNodeB1.mobility constraintAreaMinX "-inf m"
attr unit m
par singleMecHost.gNodeB1.mobility constraintAreaMinY "-inf m"
attr unit m
par singleMecHost.gNodeB1.mobility constraintAreaMinZ 0m
attr unit m
par singleMecHost.gNodeB1.mobility constraintAreaMaxX "inf m"
attr unit m
par singleMecHost.gNodeB1.mobility constraintAreaMaxY "inf m"
attr unit m
par singleMecHost.gNodeB1.mobility constraintAreaMaxZ 0m
attr unit m
par singleMecHost.gNodeB1.mobility initialX "nan m"
attr unit m
par singleMecHost.gNodeB1.mobility initialY "nan m"
attr unit m
par singleMecHost.gNodeB1.mobility initialZ 0m
attr unit m
par singleMecHost.gNodeB1.mobility initialLatitude "nan deg"
attr unit deg
par singleMecHost.gNodeB1.mobility initialLongitude "nan deg"
attr unit deg
par singleMecHost.gNodeB1.mobility initialAltitude 0m
attr unit m
par singleMecHost.gNodeB1.mobility initialHeading 0deg
attr unit deg
par singleMecHost.gNodeB1.mobility initialElevation 0deg
attr unit deg
par singleMecHost.gNodeB1.mobility initialBank 0deg
attr unit deg
par singleMecHost.gNodeB1.mobility initFromDisplayString true
par singleMecHost.gNodeB1.mobility updateFromDisplayString true
par singleMecHost.gNodeB1.cellInfo typename "\"simu5g.common.cellInfo.CellInfo\""
par singleMecHost.gNodeB1.cellInfo constraintAreaMinX "-inf m"
attr unit m
par singleMecHost.gNodeB1.cellInfo constraintAreaMinY "-inf m"
attr unit m
par singleMecHost.gNodeB1.cellInfo constraintAreaMaxX "inf m"
attr unit m
par singleMecHost.gNodeB1.cellInfo constraintAreaMaxY "inf m"
attr unit m
par singleMecHost.gNodeB1.cellInfo speed 0mps
attr unit mps
par singleMecHost.gNodeB1.cellInfo positionUpdateInterval 0.001s
attr unit s
par singleMecHost.gNodeB1.cellInfo broadcastMessageInterval 0.5s
attr unit s
par singleMecHost.gNodeB1.cellInfo microCell false
par singleMecHost.gNodeB1.cellInfo numRus 0
par singleMecHost.gNodeB1.cellInfo ruRange 0
par singleMecHost.gNodeB1.cellInfo ruStartingAngle 0deg
attr unit deg
par singleMecHost.gNodeB1.cellInfo ruTxPower "\"0;\""
par singleMecHost.gNodeB1.cellInfo antennaCws "\"1;\""
par singleMecHost.gNodeB1.cellInfo rbyDl 12
par singleMecHost.gNodeB1.cellInfo rbyUl 12
par singleMecHost.gNodeB1.cellInfo rbxDl 7
par singleMecHost.gNodeB1.cellInfo rbxUl 7
par singleMecHost.gNodeB1.cellInfo rbPilotDl 3
par singleMecHost.gNodeB1.cellInfo rbPilotUl 0
par singleMecHost.gNodeB1.cellInfo signalDl 1
par singleMecHost.gNodeB1.cellInfo signalUl 1
par singleMecHost.gNodeB1.cellInfo numPreferredBands 1
par singleMecHost.gNodeB1.collector typename "\"simu5g.corenetwork.statsCollector.GNodeBStatsCollector\""
par singleMecHost.gNodeB1.collector collectorType "\"gNBStatsCollector\""
par singleMecHost.gNodeB1.collector movingAverage false
par singleMecHost.gNodeB1.collector prbUsagePeriods 15
par singleMecHost.gNodeB1.collector dataVolumePeriods 15
par singleMecHost.gNodeB1.collector activeUserPeriods 15
par singleMecHost.gNodeB1.collector discardRatePeriods 15
par singleMecHost.gNodeB1.collector tPutPeriods 15
par singleMecHost.gNodeB1.collector prbUsagePeriod 0.01s
attr unit s
par singleMecHost.gNodeB1.collector activeUserPeriod 0.1s
attr unit s
par singleMecHost.gNodeB1.collector dataVolumePeriod 0.5s
attr unit s
par singleMecHost.gNodeB1.collector delayPacketPeriod 0.05s
attr unit s
par singleMecHost.gNodeB1.collector discardRatePeriod 10s
attr unit s
par singleMecHost.gNodeB1.collector tPutPeriod 1s
attr unit s
par singleMecHost.gNodeB1.cellularNic.ip2nic.upperLayerOut.channel typename "\"ned.DelayChannel\""
par singleMecHost.gNodeB1.cellularNic.ip2nic.upperLayerOut.channel disabled false
par singleMecHost.gNodeB1.cellularNic.ip2nic.upperLayerOut.channel delay 0s
attr unit s
par singleMecHost.gNodeB1.cellularNic.upperLayerIn.channel typename "\"ned.DelayChannel\""
par singleMecHost.gNodeB1.cellularNic.upperLayerIn.channel disabled false
par singleMecHost.gNodeB1.cellularNic.upperLayerIn.channel delay 0s
attr unit s
par singleMecHost.gNodeB1.cellularNic.ip2nic typename "\"simu5g.stack.ip2nic.IP2Nic\""
par singleMecHost.gNodeB1.cellularNic.ip2nic nodeType "\"GNODEB\""
par singleMecHost.gNodeB1.cellularNic.ip2nic interfaceTableModule "\"singleMecHost.gNodeB1.interfaceTable\""
par singleMecHost.gNodeB1.cellularNic.ip2nic routingTableModule "\"^.ipv4.routingTable\""
par "singleMecHost.gNodeB1.cellularNic.pdcpRrc.NRRxPdcpEntity Cid: 134283265" typename "\"simu5g.stack.pdcp_rrc.NRRxPdcpEntity\""
par "singleMecHost.gNodeB1.cellularNic.pdcpRrc.NRRxPdcpEntity Cid: 134283265" outOfOrderDelivery false
par "singleMecHost.gNodeB1.cellularNic.pdcpRrc.NRRxPdcpEntity Cid: 134283265" timeout 0.1s
attr unit s
par "singleMecHost.gNodeB1.cellularNic.pdcpRrc.NRRxPdcpEntity Cid: 134283265" rxWindowSize 4096
par "singleMecHost.gNodeB1.cellularNic.pdcpRrc.NRRxPdcpEntity Cid: 134348801" typename "\"simu5g.stack.pdcp_rrc.NRRxPdcpEntity\""
par "singleMecHost.gNodeB1.cellularNic.pdcpRrc.NRRxPdcpEntity Cid: 134348801" outOfOrderDelivery false
par "singleMecHost.gNodeB1.cellularNic.pdcpRrc.NRRxPdcpEntity Cid: 134348801" timeout 0.1s
attr unit s
par "singleMecHost.gNodeB1.cellularNic.pdcpRrc.NRRxPdcpEntity Cid: 134348801" rxWindowSize 4096
par "singleMecHost.gNodeB1.cellularNic.pdcpRrc.NRRxPdcpEntity Cid: 134414337" typename "\"simu5g.stack.pdcp_rrc.NRRxPdcpEntity\""
par "singleMecHost.gNodeB1.cellularNic.pdcpRrc.NRRxPdcpEntity Cid: 134414337" outOfOrderDelivery false
par "singleMecHost.gNodeB1.cellularNic.pdcpRrc.NRRxPdcpEntity Cid: 134414337" timeout 0.1s
attr unit s
par "singleMecHost.gNodeB1.cellularNic.pdcpRrc.NRRxPdcpEntity Cid: 134414337" rxWindowSize 4096
par "singleMecHost.gNodeB1.cellularNic.pdcpRrc.NRTxPdcpEntity Cid: 67174401" typename "\"simu5g.stack.pdcp_rrc.NRTxPdcpEntity\""
par "singleMecHost.gNodeB1.cellularNic.pdcpRrc.NRTxPdcpEntity Cid: 67239938" typename "\"simu5g.stack.pdcp_rrc.NRTxPdcpEntity\""
par "singleMecHost.gNodeB1.cellularNic.pdcpRrc.NRTxPdcpEntity Cid: 67305475" typename "\"simu5g.stack.pdcp_rrc.NRTxPdcpEntity\""
par "singleMecHost.gNodeB1.cellularNic.pdcpRrc.NRRxPdcpEntity Cid: 134283266" typename "\"simu5g.stack.pdcp_rrc.NRRxPdcpEntity\""
par "singleMecHost.gNodeB1.cellularNic.pdcpRrc.NRRxPdcpEntity Cid: 134283266" outOfOrderDelivery false
par "singleMecHost.gNodeB1.cellularNic.pdcpRrc.NRRxPdcpEntity Cid: 134283266" timeout 0.1s
attr unit s
par "singleMecHost.gNodeB1.cellularNic.pdcpRrc.NRRxPdcpEntity Cid: 134283266" rxWindowSize 4096
par "singleMecHost.gNodeB1.cellularNic.pdcpRrc.NRRxPdcpEntity Cid: 134348802" typename "\"simu5g.stack.pdcp_rrc.NRRxPdcpEntity\""
par "singleMecHost.gNodeB1.cellularNic.pdcpRrc.NRRxPdcpEntity Cid: 134348802" outOfOrderDelivery false
par "singleMecHost.gNodeB1.cellularNic.pdcpRrc.NRRxPdcpEntity Cid: 134348802" timeout 0.1s
attr unit s
par "singleMecHost.gNodeB1.cellularNic.pdcpRrc.NRRxPdcpEntity Cid: 134348802" rxWindowSize 4096
par "singleMecHost.gNodeB1.cellularNic.pdcpRrc.NRRxPdcpEntity Cid: 134414338" typename "\"simu5g.stack.pdcp_rrc.NRRxPdcpEntity\""
par "singleMecHost.gNodeB1.cellularNic.pdcpRrc.NRRxPdcpEntity Cid: 134414338" outOfOrderDelivery false
par "singleMecHost.gNodeB1.cellularNic.pdcpRrc.NRRxPdcpEntity Cid: 134414338" timeout 0.1s
attr unit s
par "singleMecHost.gNodeB1.cellularNic.pdcpRrc.NRRxPdcpEntity Cid: 134414338" rxWindowSize 4096
par singleMecHost.gNodeB1.cellularNic.pdcpRrc typename "\"simu5g.stack.pdcp_rrc.NRPdcpRrcEnb\""
par singleMecHost.gNodeB1.cellularNic.pdcpRrc headerCompressedSize -1B
attr unit B
par singleMecHost.gNodeB1.cellularNic.pdcpRrc conversationalRlc 1
attr enum TM,UM,AM,UNKNOWN_RLC_TYPE
par singleMecHost.gNodeB1.cellularNic.pdcpRrc streamingRlc 1
attr enum TM,UM,AM,UNKNOWN_RLC_TYPE
par singleMecHost.gNodeB1.cellularNic.pdcpRrc interactiveRlc 1
attr enum TM,UM,AM,UNKNOWN_RLC_TYPE
par singleMecHost.gNodeB1.cellularNic.pdcpRrc backgroundRlc 1
attr enum TM,UM,AM,UNKNOWN_RLC_TYPE
par singleMecHost.gNodeB1.cellularNic.rlc.tm typename "\"simu5g.stack.rlc.LteRlcTm\""
par singleMecHost.gNodeB1.cellularNic.rlc.tm queueSize 2097152B
attr unit B
par singleMecHost.gNodeB1.cellularNic.rlc.um typename "\"simu5g.stack.rlc.LteRlcUmD2D\""
par singleMecHost.gNodeB1.cellularNic.rlc.um queueSize 2097152B
attr unit B
par singleMecHost.gNodeB1.cellularNic.rlc.um mapAllLcidsToSingleBearer false
par singleMecHost.gNodeB1.cellularNic.rlc.am typename "\"simu5g.stack.rlc.LteRlcAm\""
par singleMecHost.gNodeB1.cellularNic.rlc.mux typename "\"simu5g.stack.rlc.LteRlcMux\""
par "singleMecHost.gNodeB1.cellularNic.rlc.UmRxEntity Lcid: 1" typename "\"simu5g.stack.rlc.UmRxEntity\""
par "singleMecHost.gNodeB1.cellularNic.rlc.UmRxEntity Lcid: 1" timeout 1s
attr unit s
par "singleMecHost.gNodeB1.cellularNic.rlc.UmRxEntity Lcid: 1" rxWindowSize 16
par "singleMecHost.gNodeB1.cellularNic.rlc.UmRxEntity Lcid: 1" typename "\"simu5g.stack.rlc.UmRxEntity\""
par "singleMecHost.gNodeB1.cellularNic.rlc.UmRxEntity Lcid: 1" timeout 1s
attr unit s
par "singleMecHost.gNodeB1.cellularNic.rlc.UmRxEntity Lcid: 1" rxWindowSize 16
par "singleMecHost.gNodeB1.cellularNic.rlc.UmRxEntity Lcid: 1" typename "\"simu5g.stack.rlc.UmRxEntity\""
par "singleMecHost.gNodeB1.cellularNic.rlc.UmRxEntity Lcid: 1" timeout 1s
attr unit s
par "singleMecHost.gNodeB1.cellularNic.rlc.UmRxEntity Lcid: 1" rxWindowSize 16
par "singleMecHost.gNodeB1.cellularNic.rlc.UmTxEntity Lcid: 1" typename "\"simu5g.stack.rlc.UmTxEntity\""
par "singleMecHost.gNodeB1.cellularNic.rlc.UmTxEntity Lcid: 1" fragmentSize 30B
attr unit B
par "singleMecHost.gNodeB1.cellularNic.rlc.UmTxEntity Lcid: 2" typename "\"simu5g.stack.rlc.UmTxEntity\""
par "singleMecHost.gNodeB1.cellularNic.rlc.UmTxEntity Lcid: 2" fragmentSize 30B
attr unit B
par "singleMecHost.gNodeB1.cellularNic.rlc.UmTxEntity Lcid: 3" typename "\"simu5g.stack.rlc.UmTxEntity\""
par "singleMecHost.gNodeB1.cellularNic.rlc.UmTxEntity Lcid: 3" fragmentSize 30B
attr unit B
par "singleMecHost.gNodeB1.cellularNic.rlc.UmRxEntity Lcid: 2" typename "\"simu5g.stack.rlc.UmRxEntity\""
par "singleMecHost.gNodeB1.cellularNic.rlc.UmRxEntity Lcid: 2" timeout 1s
attr unit s
par "singleMecHost.gNodeB1.cellularNic.rlc.UmRxEntity Lcid: 2" rxWindowSize 16
par "singleMecHost.gNodeB1.cellularNic.rlc.UmRxEntity Lcid: 2" typename "\"simu5g.stack.rlc.UmRxEntity\""
par "singleMecHost.gNodeB1.cellularNic.rlc.UmRxEntity Lcid: 2" timeout 1s
attr unit s
par "singleMecHost.gNodeB1.cellularNic.rlc.UmRxEntity Lcid: 2" rxWindowSize 16
par "singleMecHost.gNodeB1.cellularNic.rlc.UmRxEntity Lcid: 2" typename "\"simu5g.stack.rlc.UmRxEntity\""
par "singleMecHost.gNodeB1.cellularNic.rlc.UmRxEntity Lcid: 2" timeout 1s
attr unit s
par "singleMecHost.gNodeB1.cellularNic.rlc.UmRxEntity Lcid: 2" rxWindowSize 16
par singleMecHost.gNodeB1.cellularNic.rlc typename "\"simu5g.stack.rlc.LteRlc\""
par singleMecHost.gNodeB1.cellularNic.rlc LteRlcUmType "\"LteRlcUm\""
par singleMecHost.gNodeB1.cellularNic.rlc d2dCapable true
par singleMecHost.gNodeB1.cellularNic.rlc umType "\"LteRlcUmD2D\""
par singleMecHost.gNodeB1.cellularNic.mac typename "\"simu5g.stack.mac.NRMacGnb\""
par singleMecHost.gNodeB1.cellularNic.mac interfaceTableModule "\"singleMecHost.gNodeB1.interfaceTable\""
par singleMecHost.gNodeB1.cellularNic.mac queueSize 2097152B
attr unit B
par singleMecHost.gNodeB1.cellularNic.mac muMimo true
par singleMecHost.gNodeB1.cellularNic.mac harqProcesses 8
par singleMecHost.gNodeB1.cellularNic.mac maxHarqRtx 3
par singleMecHost.gNodeB1.cellularNic.mac harqFbEvaluationTimer 4
par singleMecHost.gNodeB1.cellularNic.mac statDisplay false
par singleMecHost.gNodeB1.cellularNic.mac amcType "\"NRAmc\""
par singleMecHost.gNodeB1.cellularNic.mac amcMode "\"AUTO\""
par singleMecHost.gNodeB1.cellularNic.mac muMimoMinDistance 50
par singleMecHost.gNodeB1.cellularNic.mac rbAllocationType "\"localized\""
par singleMecHost.gNodeB1.cellularNic.mac summaryLowerBound 0.005s
attr unit s
par singleMecHost.gNodeB1.cellularNic.mac summaryUpperBound 0.02s
attr unit s
par singleMecHost.gNodeB1.cellularNic.mac fbhbCapacityDl 5
par singleMecHost.gNodeB1.cellularNic.mac fbhbCapacityUl 5
par singleMecHost.gNodeB1.cellularNic.mac fbhbCapacityD2D 5
par singleMecHost.gNodeB1.cellularNic.mac pmiWeight 0
par singleMecHost.gNodeB1.cellularNic.mac cqiWeight 0
par singleMecHost.gNodeB1.cellularNic.mac kCqi 0
par singleMecHost.gNodeB1.cellularNic.mac eNodeBCount 0
par singleMecHost.gNodeB1.cellularNic.mac schedulingDisciplineDl "\"MAXCI\""
par singleMecHost.gNodeB1.cellularNic.mac schedulingDisciplineUl "\"MAXCI\""
par singleMecHost.gNodeB1.cellularNic.mac grantTypeConversationalDl "\"FITALL\""
par singleMecHost.gNodeB1.cellularNic.mac grantTypeStreamingDl "\"FITALL\""
par singleMecHost.gNodeB1.cellularNic.mac grantTypeInteractiveDl "\"FITALL\""
par singleMecHost.gNodeB1.cellularNic.mac grantTypeBackgroundDl "\"FITALL\""
par singleMecHost.gNodeB1.cellularNic.mac grantSizeConversationalDl -1
par singleMecHost.gNodeB1.cellularNic.mac grantSizeStreamingDl -1
par singleMecHost.gNodeB1.cellularNic.mac grantSizeInteractiveDl -1
par singleMecHost.gNodeB1.cellularNic.mac grantSizeBackgroundDl -1
par singleMecHost.gNodeB1.cellularNic.mac grantTypeConversationalUl "\"FITALL\""
par singleMecHost.gNodeB1.cellularNic.mac grantTypeStreamingUl "\"FITALL\""
par singleMecHost.gNodeB1.cellularNic.mac grantTypeInteractiveUl "\"FITALL\""
par singleMecHost.gNodeB1.cellularNic.mac grantTypeBackgroundUl "\"FITALL\""
par singleMecHost.gNodeB1.cellularNic.mac grantSizeConversationalUl -1
par singleMecHost.gNodeB1.cellularNic.mac grantSizeStreamingUl -1
par singleMecHost.gNodeB1.cellularNic.mac grantSizeInteractiveUl -1
par singleMecHost.gNodeB1.cellularNic.mac grantSizeBackgroundUl -1
par singleMecHost.gNodeB1.cellularNic.mac pfAlpha 0.95
par singleMecHost.gNodeB1.cellularNic.mac lteAallocationRbsDl 1
par singleMecHost.gNodeB1.cellularNic.mac lteAhistorySizeDL 20
par singleMecHost.gNodeB1.cellularNic.mac lteAgainHistoryThCONVERSATIONALDL 15
par singleMecHost.gNodeB1.cellularNic.mac lteAgainHistoryThSTREAMINGDL 15
par singleMecHost.gNodeB1.cellularNic.mac lteAgainHistoryThINTERACTIVEDL 15
par singleMecHost.gNodeB1.cellularNic.mac lteAgainHistoryThBACKGROUNDDL 15
par singleMecHost.gNodeB1.cellularNic.mac lteAallocationRbsUl 1
par singleMecHost.gNodeB1.cellularNic.mac lteAhistorySizeUL 20
par singleMecHost.gNodeB1.cellularNic.mac lteAgainHistoryThUL 5
par singleMecHost.gNodeB1.cellularNic.mac lteAdeadlineCONVERSATIONALDL 0.2s
attr unit s
par singleMecHost.gNodeB1.cellularNic.mac lteAdeadlineSTREAMINGDL 1s
attr unit s
par singleMecHost.gNodeB1.cellularNic.mac lteAdeadlineINTERACTIVEDL 0.05s
attr unit s
par singleMecHost.gNodeB1.cellularNic.mac lteAdeadlineBACKGROUNDDL -0.001s
attr unit s
par singleMecHost.gNodeB1.cellularNic.mac lteAslackTermCONVERSATIONALDL 0.05s
attr unit s
par singleMecHost.gNodeB1.cellularNic.mac lteAslackTermSTREAMINGDL 0.1s
attr unit s
par singleMecHost.gNodeB1.cellularNic.mac lteAslackTermINTERACTIVEDL 0.01s
attr unit s
par singleMecHost.gNodeB1.cellularNic.mac lteAslackTermBACKGROUNDDL 0s
attr unit s
par singleMecHost.gNodeB1.cellularNic.mac lteAmaxUrgentBurstCONVERSATIONALDL 0byte
attr unit byte
par singleMecHost.gNodeB1.cellularNic.mac lteAmaxUrgentBurstSTREAMINGDL 0byte
attr unit byte
par singleMecHost.gNodeB1.cellularNic.mac lteAmaxUrgentBurstINTERACTIVEDL 0byte
attr unit byte
par singleMecHost.gNodeB1.cellularNic.mac lteAmaxUrgentBurstBACKGROUNDDL 200byte
attr unit byte
par singleMecHost.gNodeB1.cellularNic.mac lteAmaxFairnessBurstCONVERSATIONALDL 0byte
attr unit byte
par singleMecHost.gNodeB1.cellularNic.mac lteAmaxFairnessBurstSTREAMINGDL 0byte
attr unit byte
par singleMecHost.gNodeB1.cellularNic.mac lteAmaxFairnessBurstINTERACTIVEDL 0byte
attr unit byte
par singleMecHost.gNodeB1.cellularNic.mac lteAmaxFairnessBurstBACKGROUNDDL 200byte
attr unit byte
par singleMecHost.gNodeB1.cellularNic.mac lteAdeadlineCONVERSATIONALUL 0.25s
attr unit s
par singleMecHost.gNodeB1.cellularNic.mac lteAdeadlineSTREAMINGUL 1.5s
attr unit s
par singleMecHost.gNodeB1.cellularNic.mac lteAdeadlineINTERACTIVEUL 2.5s
attr unit s
par singleMecHost.gNodeB1.cellularNic.mac lteAdeadlineBACKGROUNDUL 0.25s
attr unit s
par singleMecHost.gNodeB1.cellularNic.mac lteAslackTermCONVERSATIONALUL 0.05s
attr unit s
par singleMecHost.gNodeB1.cellularNic.mac lteAslackTermSTREAMINGUL 0.5s
attr unit s
par singleMecHost.gNodeB1.cellularNic.mac lteAslackTermINTERACTIVEUL 0.5s
attr unit s
par singleMecHost.gNodeB1.cellularNic.mac lteAslackTermBACKGROUNDUL 0s
attr unit s
par singleMecHost.gNodeB1.cellularNic.mac lteAmaxBurstCONVERSATIONALUL 0byte
attr unit byte
par singleMecHost.gNodeB1.cellularNic.mac lteAmaxBurstSTREAMINGUL 0byte
attr unit byte
par singleMecHost.gNodeB1.cellularNic.mac lteAmaxBurstINTERACTIVEUL 0byte
attr unit byte
par singleMecHost.gNodeB1.cellularNic.mac lteAmaxBurstBACKGROUNDUL 0byte
attr unit byte
par singleMecHost.gNodeB1.cellularNic.mac pfTmsAwareDL false
par singleMecHost.gNodeB1.cellularNic.mac pfTmsAwareUL false
par singleMecHost.gNodeB1.cellularNic.mac zeroLevelMBSFNDL 260W
attr unit W
par singleMecHost.gNodeB1.cellularNic.mac zeroLevelMBSFNUL 260W
attr unit W
par singleMecHost.gNodeB1.cellularNic.mac idleLevelMBSFNDL 150W
attr unit W
par singleMecHost.gNodeB1.cellularNic.mac idleLevelMBSFNUL 150W
attr unit W
par singleMecHost.gNodeB1.cellularNic.mac powerUnitMBSFNDL 3.76W
attr unit W
par singleMecHost.gNodeB1.cellularNic.mac powerUnitMBSFNUL 3.76W
attr unit W
par singleMecHost.gNodeB1.cellularNic.mac maxPowerMBSFNDL 448W
attr unit W
par singleMecHost.gNodeB1.cellularNic.mac maxPowerMBSFNUL 448W
attr unit W
par singleMecHost.gNodeB1.cellularNic.mac zeroLevelPAGINGDL 260W
attr unit W
par singleMecHost.gNodeB1.cellularNic.mac zeroLevelPAGINGUL 260W
attr unit W
par singleMecHost.gNodeB1.cellularNic.mac idleLevelPAGINGDL 150W
attr unit W
par singleMecHost.gNodeB1.cellularNic.mac idleLevelPAGINGUL 150W
attr unit W
par singleMecHost.gNodeB1.cellularNic.mac powerUnitPAGINGDL 3.76W
attr unit W
par singleMecHost.gNodeB1.cellularNic.mac powerUnitPAGINGUL 3.76W
attr unit W
par singleMecHost.gNodeB1.cellularNic.mac maxPowerPAGINGDL 448W
attr unit W
par singleMecHost.gNodeB1.cellularNic.mac maxPowerPAGINGUL 448W
attr unit W
par singleMecHost.gNodeB1.cellularNic.mac zeroLevelNORMAL_FRAME_TYPEDL 260W
attr unit W
par singleMecHost.gNodeB1.cellularNic.mac zeroLevelNORMAL_FRAME_TYPEUL 260W
attr unit W
par singleMecHost.gNodeB1.cellularNic.mac idleLevelNORMAL_FRAME_TYPEDL 150W
attr unit W
par singleMecHost.gNodeB1.cellularNic.mac idleLevelNORMAL_FRAME_TYPEUL 150W
attr unit W
par singleMecHost.gNodeB1.cellularNic.mac powerUnitNORMAL_FRAME_TYPEDL 3.76W
attr unit W
par singleMecHost.gNodeB1.cellularNic.mac powerUnitNORMAL_FRAME_TYPEUL 3.76W
attr unit W
par singleMecHost.gNodeB1.cellularNic.mac maxPowerNORMAL_FRAME_TYPEDL 448W
attr unit W
par singleMecHost.gNodeB1.cellularNic.mac maxPowerNORMAL_FRAME_TYPEUL 448W
attr unit W
par singleMecHost.gNodeB1.cellularNic.mac zeroLevelBROADCASTDL 260W
attr unit W
par singleMecHost.gNodeB1.cellularNic.mac zeroLevelBROADCASTUL 260W
attr unit W
par singleMecHost.gNodeB1.cellularNic.mac idleLevelBROADCASTDL 150W
attr unit W
par singleMecHost.gNodeB1.cellularNic.mac idleLevelBROADCASTUL 150W
attr unit W
par singleMecHost.gNodeB1.cellularNic.mac powerUnitBROADCASTDL 3.76W
attr unit W
par singleMecHost.gNodeB1.cellularNic.mac powerUnitBROADCASTUL 3.76W
attr unit W
par singleMecHost.gNodeB1.cellularNic.mac maxPowerBROADCASTDL 448W
attr unit W
par singleMecHost.gNodeB1.cellularNic.mac maxPowerBROADCASTUL 448W
attr unit W
par singleMecHost.gNodeB1.cellularNic.mac zeroLevelSYNCRODL 260W
attr unit W
par singleMecHost.gNodeB1.cellularNic.mac zeroLevelSYNCROUL 260W
attr unit W
par singleMecHost.gNodeB1.cellularNic.mac idleLevelSYNCRODL 150W
attr unit W
par singleMecHost.gNodeB1.cellularNic.mac idleLevelSYNCROUL 150W
attr unit W
par singleMecHost.gNodeB1.cellularNic.mac powerUnitSYNCRODL 3.76W
attr unit W
par singleMecHost.gNodeB1.cellularNic.mac powerUnitSYNCROUL 3.76W
attr unit W
par singleMecHost.gNodeB1.cellularNic.mac maxPowerSYNCRODL 448W
attr unit W
par singleMecHost.gNodeB1.cellularNic.mac maxPowerSYNCROUL 448W
attr unit W
par singleMecHost.gNodeB1.cellularNic.mac prfFixedSYNCRO 5.543W
attr unit W
par singleMecHost.gNodeB1.cellularNic.mac prfRBSYNCRO 0.689W
attr unit W
par singleMecHost.gNodeB1.cellularNic.mac prfFixedMBSFN 4.4444W
attr unit W
par singleMecHost.gNodeB1.cellularNic.mac prfRBMBSFN 0.711W
attr unit W
par singleMecHost.gNodeB1.cellularNic.mac prfFixedNORMAL_FRAME_TYPE 3.81W
attr unit W
par singleMecHost.gNodeB1.cellularNic.mac prfRBNORMAL_FRAME_TYPE 0.724W
attr unit W
par singleMecHost.gNodeB1.cellularNic.mac prfFixedPAGING 3.81W
attr unit W
par singleMecHost.gNodeB1.cellularNic.mac prfRBPAGING 0.724W
attr unit W
par singleMecHost.gNodeB1.cellularNic.mac prfFixedBROADCAST 4.4W
attr unit W
par singleMecHost.gNodeB1.cellularNic.mac prfRBBROADCAST 0.712W
attr unit W
par singleMecHost.gNodeB1.cellularNic.mac pilotMode "\"ROBUST_CQI\""
par singleMecHost.gNodeB1.cellularNic.mac usePreconfiguredTxParams false
par singleMecHost.gNodeB1.cellularNic.mac d2dCqi 7
par singleMecHost.gNodeB1.cellularNic.mac reuseD2D false
par singleMecHost.gNodeB1.cellularNic.mac reuseD2DMulti false
par singleMecHost.gNodeB1.cellularNic.mac conflictGraphUpdatePeriod 1s
attr unit s
par singleMecHost.gNodeB1.cellularNic.mac conflictGraphThreshold 90
par singleMecHost.gNodeB1.cellularNic.mac conflictGraphD2DInterferenceRadius -1m
attr unit m
par singleMecHost.gNodeB1.cellularNic.mac conflictGraphD2DMultiTxRadius -1m
attr unit m
par singleMecHost.gNodeB1.cellularNic.mac conflictGraphD2DMultiInterferenceRadius -1m
attr unit m
par singleMecHost.gNodeB1.cellularNic.mac msHarqInterrupt true
par singleMecHost.gNodeB1.cellularNic.mac msClearRlcBuffer true
par singleMecHost.gNodeB1.cellularNic.phy typename "\"simu5g.stack.phy.LtePhyEnbD2D\""
par singleMecHost.gNodeB1.cellularNic.phy ueTxPower 26
par singleMecHost.gNodeB1.cellularNic.phy eNodeBTxPower 46
par singleMecHost.gNodeB1.cellularNic.phy microTxPower 30
par singleMecHost.gNodeB1.cellularNic.phy txDirection "\"OMNI\""
par singleMecHost.gNodeB1.cellularNic.phy txAngle 0
par singleMecHost.gNodeB1.cellularNic.phy dynamicCellAssociation false
par singleMecHost.gNodeB1.cellularNic.phy enableHandover false
par singleMecHost.gNodeB1.cellularNic.phy handoverLatency 0.05s
attr unit s
par singleMecHost.gNodeB1.cellularNic.phy enableMulticastD2DRangeCheck false
par singleMecHost.gNodeB1.cellularNic.phy multicastD2DRange 1000m
attr unit m
par singleMecHost.gNodeB1.cellularNic.phy targetBler 0.01
par singleMecHost.gNodeB1.cellularNic.phy lambdaMinTh 0.02
par singleMecHost.gNodeB1.cellularNic.phy lambdaMaxTh 0.2
par singleMecHost.gNodeB1.cellularNic.phy lambdaRatioTh 20
par singleMecHost.gNodeB1.cellularNic.phy enableD2DCqiReporting true
par singleMecHost.gNodeB1.cellularNic.channelModel[0] typename "\"simu5g.stack.phy.ChannelModel.NRChannelModel\""
par singleMecHost.gNodeB1.cellularNic.channelModel[0] componentCarrierIndex 0
par singleMecHost.gNodeB1.cellularNic.channelModel[0] shadowing true
par singleMecHost.gNodeB1.cellularNic.channelModel[0] scenario "\"URBAN_MACROCELL\""
par singleMecHost.gNodeB1.cellularNic.channelModel[0] nodeb_height 25
par singleMecHost.gNodeB1.cellularNic.channelModel[0] building_height 20
par singleMecHost.gNodeB1.cellularNic.channelModel[0] inside_building false
par singleMecHost.gNodeB1.cellularNic.channelModel[0] street_wide 20
par singleMecHost.gNodeB1.cellularNic.channelModel[0] ue_height 1.5
par singleMecHost.gNodeB1.cellularNic.channelModel[0] tolerateMaxDistViolation false
par singleMecHost.gNodeB1.cellularNic.channelModel[0] useTorus false
par singleMecHost.gNodeB1.cellularNic.channelModel[0] correlation_distance 50
par singleMecHost.gNodeB1.cellularNic.channelModel[0] targetBler 0.01
par singleMecHost.gNodeB1.cellularNic.channelModel[0] harqReduction 0.2
par singleMecHost.gNodeB1.cellularNic.channelModel[0] lambdaMinTh 0.02
par singleMecHost.gNodeB1.cellularNic.channelModel[0] lambdaMaxTh 0.2
par singleMecHost.gNodeB1.cellularNic.channelModel[0] lambdaRatioTh 20
par singleMecHost.gNodeB1.cellularNic.channelModel[0] antennaGainUe 0
par singleMecHost.gNodeB1.cellularNic.channelModel[0] antennGainEnB 18
par singleMecHost.gNodeB1.cellularNic.channelModel[0] antennGainMicro 5
par singleMecHost.gNodeB1.cellularNic.channelModel[0] thermalNoise -104.5
par singleMecHost.gNodeB1.cellularNic.channelModel[0] ue_noise_figure 7
par singleMecHost.gNodeB1.cellularNic.channelModel[0] bs_noise_figure 5
par singleMecHost.gNodeB1.cellularNic.channelModel[0] cable_loss 2
par singleMecHost.gNodeB1.cellularNic.channelModel[0] dynamic_los false
par singleMecHost.gNodeB1.cellularNic.channelModel[0] fixed_los false
par singleMecHost.gNodeB1.cellularNic.channelModel[0] fading true
par singleMecHost.gNodeB1.cellularNic.channelModel[0] fading_type "\"JAKES\""
par singleMecHost.gNodeB1.cellularNic.channelModel[0] fading_paths 6
par singleMecHost.gNodeB1.cellularNic.channelModel[0] delay_rms 3.63e-07
par singleMecHost.gNodeB1.cellularNic.channelModel[0] bgCell_interference true
par singleMecHost.gNodeB1.cellularNic.channelModel[0] extCell_interference true
par singleMecHost.gNodeB1.cellularNic.channelModel[0] downlink_interference false
par singleMecHost.gNodeB1.cellularNic.channelModel[0] uplink_interference false
par singleMecHost.gNodeB1.cellularNic.channelModel[0] d2d_interference true
par singleMecHost.gNodeB1.cellularNic.channelModel[0] enable_extCell_los true
par singleMecHost.gNodeB1.cellularNic.channelModel[0] useRsrqFromLog false
par singleMecHost.gNodeB1.cellularNic.channelModel[0] rsrqShift 22
par singleMecHost.gNodeB1.cellularNic.channelModel[0] rsrqScale 1
par singleMecHost.gNodeB1.cellularNic.channelModel[0] collectSinrStatistics true
par singleMecHost.gNodeB1.cellularNic.packetFlowManager typename "\"simu5g.stack.packetFlowManager.NRPacketFlowManagerGnb\""
par singleMecHost.gNodeB1.cellularNic.packetFlowManager pfmType "\"NRPacketFlowManagerGnb\""
par singleMecHost.gNodeB1.cellularNic.x2Manager typename "\"simu5g.x2.LteX2Manager\""
par singleMecHost.gNodeB1.cellularNic.handoverManager typename "\"simu5g.stack.handoverManager.LteHandoverManager\""
par singleMecHost.gNodeB1.cellularNic.handoverManager losslessHandover false
par singleMecHost.gNodeB1.cellularNic.bgTrafficGenerator[0].manager typename "\"simu5g.stack.backgroundTrafficGenerator.BackgroundTrafficManager\""
par singleMecHost.gNodeB1.cellularNic.bgTrafficGenerator[0] typename "\"simu5g.stack.backgroundTrafficGenerator.BackgroundTrafficGenerator\""
par singleMecHost.gNodeB1.cellularNic.bgTrafficGenerator[0] numBgUes 0
par singleMecHost.gNodeB1.cellularNic.bgTrafficGenerator[0] bgTrafficManagerType "\"BackgroundTrafficManager\""
par singleMecHost.gNodeB1.cellularNic.bgTrafficGenerator[0] enablePeriodicCqiUpdate true
par singleMecHost.gNodeB1.cellularNic.bgTrafficGenerator[0] useProbabilisticCqi false
par singleMecHost.gNodeB1.cellularNic.bgTrafficGenerator[0] computeAvgInterference false
par singleMecHost.gNodeB1.cellularNic.d2dModeSelection typename "\"simu5g.stack.d2dModeSelection.D2DModeSelectionBase\""
par singleMecHost.gNodeB1.cellularNic.d2dModeSelection modeSelectionPeriod 1s
attr unit s
par singleMecHost.gNodeB1.cellularNic typename "\"simu5g.stack.NRNicEnb\""
par singleMecHost.gNodeB1.cellularNic displayStringTextFormat "\"%a (%i)\\n%m\""
par singleMecHost.gNodeB1.cellularNic recordPcap false
par singleMecHost.gNodeB1.cellularNic numPcapRecorders 0
par singleMecHost.gNodeB1.cellularNic interfaceTableModule "\"singleMecHost.gNodeB1.interfaceTable\""
par singleMecHost.gNodeB1.cellularNic routingTableModule "\"^.ipv4.routingTable\""
par singleMecHost.gNodeB1.cellularNic LtePdcpRrcType "\"NRPdcpRrcEnb\""
par singleMecHost.gNodeB1.cellularNic LteMacType "\"NRMacGnb\""
par singleMecHost.gNodeB1.cellularNic PacketFlowManagerType "\"NRPacketFlowManagerGnb\""
par singleMecHost.gNodeB1.cellularNic hasRNISupport true
par singleMecHost.gNodeB1.cellularNic LtePhyType "\"LtePhyEnbD2D\""
par singleMecHost.gNodeB1.cellularNic nodeType "\"GNODEB\""
par singleMecHost.gNodeB1.cellularNic processingDelayIn 0s
attr unit s
par singleMecHost.gNodeB1.cellularNic processingDelayOut 0s
attr unit s
par singleMecHost.gNodeB1.cellularNic LteChannelModelType "\"NRChannelModel\""
par singleMecHost.gNodeB1.cellularNic d2dCapable true
par singleMecHost.gNodeB1.cellularNic dualConnectivityEnabled false
par singleMecHost.gNodeB1.cellularNic numCarriers 1
par singleMecHost.gNodeB1.cellularNic address "\"0A-AA-00-00-00-01\""
par singleMecHost.gNodeB1.cellularNic compEnabled false
par singleMecHost.gNodeB1.cellularNic LteCompManagerType "\"LteCompManagerProportional\""
par singleMecHost.gNodeB1.cellularNic d2dModeSelectionType "\"D2DModeSelectionBase\""
par singleMecHost.gNodeB1.pppIf.upperLayerIn.channel typename "\"ned.IdealChannel\""
par singleMecHost.gNodeB1.pppIf.phys$i.channel typename "\"ned.IdealChannel\""
par singleMecHost.gNodeB1.pppIf.ppp.phys$o.channel typename "\"ned.IdealChannel\""
par singleMecHost.gNodeB1.pppIf.ppp.upperLayerOut.channel typename "\"ned.IdealChannel\""
par singleMecHost.gNodeB1.pppIf.ppp.queue typename "\"inet.queueing.queue.DropTailQueue\""
par singleMecHost.gNodeB1.pppIf.ppp.queue displayStringTextFormat "\"contains %p pk (%l) pushed %u\\npulled %o removed %r dropped %d\""
par singleMecHost.gNodeB1.pppIf.ppp.queue packetCapacity 10000
par singleMecHost.gNodeB1.pppIf.ppp.queue dataCapacity -1b
attr unit b
par singleMecHost.gNodeB1.pppIf.ppp.queue dropperClass "\"inet::queueing::PacketAtCollectionEndDropper\""
par singleMecHost.gNodeB1.pppIf.ppp.queue comparatorClass "\"\""
par singleMecHost.gNodeB1.pppIf.ppp.queue bufferModule "\"\""
par singleMecHost.gNodeB1.pppIf.ppp typename "\"inet.linklayer.ppp.Ppp\""
par singleMecHost.gNodeB1.pppIf.ppp interfaceTableModule "\"singleMecHost.gNodeB1.interfaceTable\""
par singleMecHost.gNodeB1.pppIf.ppp displayStringTextFormat "\"rate: %b\\nsent: %s, rcvd: %r\\nqueue: %q, drop: %d\""
par singleMecHost.gNodeB1.pppIf.ppp sendRawBytes false
par singleMecHost.gNodeB1.pppIf.ppp mtu 4470B
attr unit B
par singleMecHost.gNodeB1.pppIf.ppp stopOperationExtraTime -1s
attr unit s
par singleMecHost.gNodeB1.pppIf.ppp stopOperationTimeout 2s
attr unit s
par singleMecHost.gNodeB1.pppIf typename "\"inet.linklayer.ppp.PppInterface\""
par singleMecHost.gNodeB1.pppIf displayStringTextFormat "\"%a (%i)\\n%m\""
par singleMecHost.gNodeB1.pppIf recordPcap false
par singleMecHost.gNodeB1.pppIf numPcapRecorders 0
par singleMecHost.gNodeB1.pppIf interfaceTableModule "\"singleMecHost.gNodeB1.interfaceTable\""
par singleMecHost.gNodeB1.pppMEHostIf.upperLayerIn.channel typename "\"ned.IdealChannel\""
par singleMecHost.gNodeB1.pppMEHostIf.phys$i.channel typename "\"ned.IdealChannel\""
par singleMecHost.gNodeB1.pppMEHostIf.ppp.phys$o.channel typename "\"ned.IdealChannel\""
par singleMecHost.gNodeB1.pppMEHostIf.ppp.upperLayerOut.channel typename "\"ned.IdealChannel\""
par singleMecHost.gNodeB1.pppMEHostIf.ppp.queue typename "\"inet.queueing.queue.DropTailQueue\""
par singleMecHost.gNodeB1.pppMEHostIf.ppp.queue displayStringTextFormat "\"contains %p pk (%l) pushed %u\\npulled %o removed %r dropped %d\""
par singleMecHost.gNodeB1.pppMEHostIf.ppp.queue packetCapacity 10000
par singleMecHost.gNodeB1.pppMEHostIf.ppp.queue dataCapacity -1b
attr unit b
par singleMecHost.gNodeB1.pppMEHostIf.ppp.queue dropperClass "\"inet::queueing::PacketAtCollectionEndDropper\""
par singleMecHost.gNodeB1.pppMEHostIf.ppp.queue comparatorClass "\"\""
par singleMecHost.gNodeB1.pppMEHostIf.ppp.queue bufferModule "\"\""
par singleMecHost.gNodeB1.pppMEHostIf.ppp typename "\"inet.linklayer.ppp.Ppp\""
par singleMecHost.gNodeB1.pppMEHostIf.ppp interfaceTableModule "\"singleMecHost.gNodeB1.interfaceTable\""
par singleMecHost.gNodeB1.pppMEHostIf.ppp displayStringTextFormat "\"rate: %b\\nsent: %s, rcvd: %r\\nqueue: %q, drop: %d\""
par singleMecHost.gNodeB1.pppMEHostIf.ppp sendRawBytes false
par singleMecHost.gNodeB1.pppMEHostIf.ppp mtu 4470B
attr unit B
par singleMecHost.gNodeB1.pppMEHostIf.ppp stopOperationExtraTime -1s
attr unit s
par singleMecHost.gNodeB1.pppMEHostIf.ppp stopOperationTimeout 2s
attr unit s
par singleMecHost.gNodeB1.pppMEHostIf typename "\"inet.linklayer.ppp.PppInterface\""
par singleMecHost.gNodeB1.pppMEHostIf displayStringTextFormat "\"%a (%i)\\n%m\""
par singleMecHost.gNodeB1.pppMEHostIf recordPcap false
par singleMecHost.gNodeB1.pppMEHostIf numPcapRecorders 0
par singleMecHost.gNodeB1.pppMEHostIf interfaceTableModule "\"singleMecHost.gNodeB1.interfaceTable\""
par singleMecHost.gNodeB1.ipv4.transportIn.channel typename "\"ned.IdealChannel\""
par singleMecHost.gNodeB1.ipv4.up.out[0].channel typename "\"ned.IdealChannel\""
par singleMecHost.gNodeB1.ipv4.lp.out[2].channel typename "\"ned.IdealChannel\""
par singleMecHost.gNodeB1.ipv4.ifIn.channel typename "\"ned.IdealChannel\""
par singleMecHost.gNodeB1.ipv4.configurator typename "\"inet.networklayer.configurator.ipv4.Ipv4NodeConfigurator\""
par singleMecHost.gNodeB1.ipv4.configurator interfaceTableModule "\"singleMecHost.gNodeB1.interfaceTable\""
par singleMecHost.gNodeB1.ipv4.configurator routingTableModule "\"singleMecHost.gNodeB1.ipv4.routingTable\""
par singleMecHost.gNodeB1.ipv4.configurator networkConfiguratorModule "\"configurator\""
par singleMecHost.gNodeB1.ipv4.configurator configureRoutingTable true
par singleMecHost.gNodeB1.ipv4.routingTable typename "\"inet.networklayer.ipv4.Ipv4RoutingTable\""
par singleMecHost.gNodeB1.ipv4.routingTable interfaceTableModule "\"singleMecHost.gNodeB1.interfaceTable\""
par singleMecHost.gNodeB1.ipv4.routingTable routerId "\"auto\""
par singleMecHost.gNodeB1.ipv4.routingTable netmaskRoutes "\"*\""
par singleMecHost.gNodeB1.ipv4.routingTable forwarding true
par singleMecHost.gNodeB1.ipv4.routingTable multicastForwarding false
par singleMecHost.gNodeB1.ipv4.routingTable useAdminDist false
par singleMecHost.gNodeB1.ipv4.routingTable routingFile "\"\""
par singleMecHost.gNodeB1.ipv4.natTable typename "\"inet.networklayer.ipv4.Ipv4NatTable\""
par singleMecHost.gNodeB1.ipv4.natTable networkProtocolModule "\"^.ip\""
par singleMecHost.gNodeB1.ipv4.natTable config "<config/> at content:1"
par singleMecHost.gNodeB1.ipv4.up typename "\"inet.common.MessageDispatcher\""
par singleMecHost.gNodeB1.ipv4.up displayStringTextFormat "\"processed %p pk (%l)\""
par singleMecHost.gNodeB1.ipv4.igmp typename "\"inet.networklayer.ipv4.Igmpv2\""
par singleMecHost.gNodeB1.ipv4.igmp interfaceTableModule "\"singleMecHost.gNodeB1.interfaceTable\""
par singleMecHost.gNodeB1.ipv4.igmp routingTableModule "\"singleMecHost.gNodeB1.ipv4.routingTable\""
par singleMecHost.gNodeB1.ipv4.igmp crcMode "\"declared\""
attr enum declared,computed
par singleMecHost.gNodeB1.ipv4.igmp enabled true
par singleMecHost.gNodeB1.ipv4.igmp robustnessVariable 2
par singleMecHost.gNodeB1.ipv4.igmp queryInterval 125s
attr unit s
par singleMecHost.gNodeB1.ipv4.igmp queryResponseInterval 10s
attr unit s
par singleMecHost.gNodeB1.ipv4.igmp groupMembershipInterval 260s
attr unit s
par singleMecHost.gNodeB1.ipv4.igmp otherQuerierPresentInterval 255s
attr unit s
par singleMecHost.gNodeB1.ipv4.igmp startupQueryInterval 31.25s
attr unit s
par singleMecHost.gNodeB1.ipv4.igmp startupQueryCount 2
par singleMecHost.gNodeB1.ipv4.igmp lastMemberQueryInterval 1s
attr unit s
par singleMecHost.gNodeB1.ipv4.igmp lastMemberQueryCount 2
par singleMecHost.gNodeB1.ipv4.igmp unsolicitedReportInterval 10s
attr unit s
par singleMecHost.gNodeB1.ipv4.icmp typename "\"inet.networklayer.ipv4.Icmp\""
par singleMecHost.gNodeB1.ipv4.icmp interfaceTableModule "\"singleMecHost.gNodeB1.interfaceTable\""
par singleMecHost.gNodeB1.ipv4.icmp routingTableModule "\"singleMecHost.gNodeB1.ipv4.routingTable\""
par singleMecHost.gNodeB1.ipv4.icmp crcMode "\"declared\""
attr enum declared,computed
par singleMecHost.gNodeB1.ipv4.icmp quoteLength 8B
attr unit B
par singleMecHost.gNodeB1.ipv4.mp typename "\"inet.common.MessageDispatcher\""
par singleMecHost.gNodeB1.ipv4.mp displayStringTextFormat "\"processed %p pk (%l)\""
par singleMecHost.gNodeB1.ipv4.ip typename "\"inet.networklayer.ipv4.Ipv4\""
par singleMecHost.gNodeB1.ipv4.ip interfaceTableModule "\"singleMecHost.gNodeB1.interfaceTable\""
par singleMecHost.gNodeB1.ipv4.ip routingTableModule "\"singleMecHost.gNodeB1.ipv4.routingTable\""
par singleMecHost.gNodeB1.ipv4.ip arpModule "\"singleMecHost.gNodeB1.ipv4.arp\""
par singleMecHost.gNodeB1.ipv4.ip icmpModule "\"singleMecHost.gNodeB1.ipv4.icmp\""
par singleMecHost.gNodeB1.ipv4.ip crcMode "\"declared\""
attr enum declared,computed
par singleMecHost.gNodeB1.ipv4.ip timeToLive 32
par singleMecHost.gNodeB1.ipv4.ip multicastTimeToLive 32
par singleMecHost.gNodeB1.ipv4.ip fragmentTimeout 60s
attr unit s
par singleMecHost.gNodeB1.ipv4.ip limitedBroadcast false
par singleMecHost.gNodeB1.ipv4.ip directBroadcastInterfaces "\"\""
par singleMecHost.gNodeB1.ipv4.arp typename "\"inet.networklayer.arp.ipv4.Arp\""
par singleMecHost.gNodeB1.ipv4.arp interfaceTableModule "\"singleMecHost.gNodeB1.interfaceTable\""
par singleMecHost.gNodeB1.ipv4.arp routingTableModule "\"singleMecHost.gNodeB1.ipv4.routingTable\""
par singleMecHost.gNodeB1.ipv4.arp retryTimeout 1s
attr unit s
par singleMecHost.gNodeB1.ipv4.arp retryCount 3
par singleMecHost.gNodeB1.ipv4.arp cacheTimeout 120s
attr unit s
par singleMecHost.gNodeB1.ipv4.arp proxyArpInterfaces "\"*\""
par singleMecHost.gNodeB1.ipv4.lp typename "\"inet.common.MessageDispatcher\""
par singleMecHost.gNodeB1.ipv4.lp displayStringTextFormat "\"processed %p pk (%l)\""
par singleMecHost.gNodeB1.ipv4 typename "\"inet.networklayer.ipv4.Ipv4NetworkLayer\""
par singleMecHost.gNodeB1.ipv4 forwarding true
par singleMecHost.gNodeB1.ipv4 multicastForwarding false
par singleMecHost.gNodeB1.ipv4 interfaceTableModule "\"singleMecHost.gNodeB1.interfaceTable\""
par singleMecHost.gNodeB1.ipv4 displayStringTextFormat "\"%i\""
par singleMecHost.gNodeB1.udp typename "\"inet.transportlayer.udp.Udp\""
par singleMecHost.gNodeB1.udp interfaceTableModule "\"singleMecHost.gNodeB1.interfaceTable\""
par singleMecHost.gNodeB1.udp icmpModule "\"^.ipv4.icmp\""
par singleMecHost.gNodeB1.udp icmpv6Module "\"^.ipv6.icmpv6\""
par singleMecHost.gNodeB1.udp crcMode "\"declared\""
attr enum disabled,declared,computed
par singleMecHost.gNodeB1.tcp typename "\"inet.transportlayer.tcp.Tcp\""
par singleMecHost.gNodeB1.tcp crcMode "\"declared\""
attr enum declared,computed
par singleMecHost.gNodeB1.tcp advertisedWindow 65535
par singleMecHost.gNodeB1.tcp delayedAcksEnabled false
par singleMecHost.gNodeB1.tcp nagleEnabled true
par singleMecHost.gNodeB1.tcp limitedTransmitEnabled false
par singleMecHost.gNodeB1.tcp increasedIWEnabled false
par singleMecHost.gNodeB1.tcp sackSupport true
par singleMecHost.gNodeB1.tcp windowScalingSupport false
par singleMecHost.gNodeB1.tcp windowScalingFactor -1
par singleMecHost.gNodeB1.tcp timestampSupport false
par singleMecHost.gNodeB1.tcp mss 536
par singleMecHost.gNodeB1.tcp msl 120s
attr unit s
par singleMecHost.gNodeB1.tcp tcpAlgorithmClass "\"TcpReno\""
attr enum TcpVegas,TcpWestwood,TcpNewReno,TcpReno,TcpTahoe,TcpNoCongestionControl
par singleMecHost.gNodeB1.tcp useDataNotification false
par singleMecHost.gNodeB1.tcp dupthresh 3
par singleMecHost.gNodeB1.tcp initialSsthresh 4294967295
par singleMecHost.gNodeB1.tcp stopOperationExtraTime 0s
attr unit s
par singleMecHost.gNodeB1.tcp stopOperationTimeout 2s
attr unit s
par singleMecHost.gNodeB1.tcp ecnWillingness false
par singleMecHost.gNodeB1.tcp dctcpGamma 0.0625
par singleMecHost.gNodeB1.sctp typename "\"inet.transportlayer.sctp.Sctp\""
par singleMecHost.gNodeB1.sctp interfaceTableModule "\"singleMecHost.gNodeB1.interfaceTable\""
par singleMecHost.gNodeB1.sctp routingTableModule "\"^.ipv4.routingTable\""
par singleMecHost.gNodeB1.sctp crcMode "\"declared\""
attr enum declared,computed
par singleMecHost.gNodeB1.sctp numGapReports 3
par singleMecHost.gNodeB1.sctp rtoInitial 3s
attr unit s
par singleMecHost.gNodeB1.sctp rtoMin 1s
attr unit s
par singleMecHost.gNodeB1.sctp rtoMax 60s
attr unit s
par singleMecHost.gNodeB1.sctp rtoAlpha 0.125
par singleMecHost.gNodeB1.sctp rtoBeta 0.25
par singleMecHost.gNodeB1.sctp maxBurst 4
par singleMecHost.gNodeB1.sctp maxBurstVariant "\"maxBurst\""
par singleMecHost.gNodeB1.sctp initialWindow 0
par singleMecHost.gNodeB1.sctp assocMaxRetrans 10
par singleMecHost.gNodeB1.sctp pathMaxRetrans 5
par singleMecHost.gNodeB1.sctp maxInitRetrans 8
par singleMecHost.gNodeB1.sctp sackPeriod 0.2s
attr unit s
par singleMecHost.gNodeB1.sctp sackFrequency 2
par singleMecHost.gNodeB1.sctp reactivatePrimaryPath false
par singleMecHost.gNodeB1.sctp sendQueueLimit 0
par singleMecHost.gNodeB1.sctp validCookieLifetime 10s
attr unit s
par singleMecHost.gNodeB1.sctp enableHeartbeats true
par singleMecHost.gNodeB1.sctp hbInterval 30s
attr unit s
par singleMecHost.gNodeB1.sctp sendHeartbeatsOnActivePaths false
par singleMecHost.gNodeB1.sctp nagleEnabled true
par singleMecHost.gNodeB1.sctp naglePoint 1468
par singleMecHost.gNodeB1.sctp fragPoint 1452
par singleMecHost.gNodeB1.sctp fastRecoverySupported true
par singleMecHost.gNodeB1.sctp sctpAlgorithmClass "\"SctpAlg\""
par singleMecHost.gNodeB1.sctp ccModule 0
par singleMecHost.gNodeB1.sctp osbWithHeader false
par singleMecHost.gNodeB1.sctp RTXMethod 0
par singleMecHost.gNodeB1.sctp ssModule 0
par singleMecHost.gNodeB1.sctp arwnd 65535
par singleMecHost.gNodeB1.sctp swsLimit 3000
par singleMecHost.gNodeB1.sctp udpEncapsEnabled false
par singleMecHost.gNodeB1.sctp natFriendly false
par singleMecHost.gNodeB1.sctp bytesToAddPerRcvdChunk 0
par singleMecHost.gNodeB1.sctp bytesToAddPerPeerChunk 0
par singleMecHost.gNodeB1.sctp tellArwnd false
par singleMecHost.gNodeB1.sctp messageAcceptLimit 0
par singleMecHost.gNodeB1.sctp fairStart 0s
attr unit s
par singleMecHost.gNodeB1.sctp fairStop 0s
attr unit s
par singleMecHost.gNodeB1.sctp streamsToPaths "\"\""
par singleMecHost.gNodeB1.sctp startEndToEndDelay 0
par singleMecHost.gNodeB1.sctp stopEndToEndDelay 10
par singleMecHost.gNodeB1.sctp throughputInterval 1
par singleMecHost.gNodeB1.sctp auth false
par singleMecHost.gNodeB1.sctp chunks "\"\""
par singleMecHost.gNodeB1.sctp padding false
par singleMecHost.gNodeB1.sctp addIP false
par singleMecHost.gNodeB1.sctp addTime 0s
attr unit s
par singleMecHost.gNodeB1.sctp addAddress "\"\""
par singleMecHost.gNodeB1.sctp addIpType "\"0\""
par singleMecHost.gNodeB1.sctp packetDrop false
par singleMecHost.gNodeB1.sctp sackNow false
par singleMecHost.gNodeB1.sctp highSpeedCC false
par singleMecHost.gNodeB1.sctp checkSackSeqNumber false
par singleMecHost.gNodeB1.sctp nrSack false
par singleMecHost.gNodeB1.sctp disableReneging false
par singleMecHost.gNodeB1.sctp gapReportLimit 100000000
par singleMecHost.gNodeB1.sctp gapListOptimizationVariant "\"none\""
par singleMecHost.gNodeB1.sctp smartOverfullSACKHandling false
par singleMecHost.gNodeB1.sctp allowQoSTracking false
par singleMecHost.gNodeB1.sctp qosTrackingInterval 1s
attr unit s
par singleMecHost.gNodeB1.sctp cmtSendAllVariant "\"normal\""
par singleMecHost.gNodeB1.sctp cmtRetransmissionVariant "\"normal\""
par singleMecHost.gNodeB1.sctp cmtCUCVariant "\"normal\""
par singleMecHost.gNodeB1.sctp cmtBufferSplitVariant "\"none\""
par singleMecHost.gNodeB1.sctp cmtBufferSplittingUsesOSB false
par singleMecHost.gNodeB1.sctp cmtUseSFR true
par singleMecHost.gNodeB1.sctp cmtUseDAC true
par singleMecHost.gNodeB1.sctp cmtUseFRC true
par singleMecHost.gNodeB1.sctp cmtSmartT3Reset true
par singleMecHost.gNodeB1.sctp cmtSmartFastRTX true
par singleMecHost.gNodeB1.sctp cmtSmartReneging false
par singleMecHost.gNodeB1.sctp cmtSlowPathRTTUpdate false
par singleMecHost.gNodeB1.sctp cmtChunkReschedulingVariant "\"none\""
par singleMecHost.gNodeB1.sctp cmtChunkReschedulingThreshold 0.5
par singleMecHost.gNodeB1.sctp cmtMovedChunksReduceCwnd true
par singleMecHost.gNodeB1.sctp movedChunkFastRTXFactor 2
par singleMecHost.gNodeB1.sctp cmtSackPath "\"standard\""
par singleMecHost.gNodeB1.sctp strictCwndBooking false
par singleMecHost.gNodeB1.sctp cmtCCVariant "\"off\""
par singleMecHost.gNodeB1.sctp cmtCCPathGroups "\"\""
par singleMecHost.gNodeB1.sctp rpPathBlocking false
par singleMecHost.gNodeB1.sctp rpScaleBlockingTimeout false
par singleMecHost.gNodeB1.sctp rpMinCwnd 1
par singleMecHost.gNodeB1.at typename "\"inet.common.MessageDispatcher\""
par singleMecHost.gNodeB1.at displayStringTextFormat "\"processed %p pk (%l)\""
par singleMecHost.gNodeB1.tn typename "\"inet.common.MessageDispatcher\""
par singleMecHost.gNodeB1.tn displayStringTextFormat "\"processed %p pk (%l)\""
par singleMecHost.gNodeB1.nl typename "\"inet.common.MessageDispatcher\""
par singleMecHost.gNodeB1.nl displayStringTextFormat "\"processed %p pk (%l)\""
par singleMecHost.gNodeB1.trafficFlowFilter typename "\"simu5g.corenetwork.trafficFlowFilter.TrafficFlowFilter\""
par singleMecHost.gNodeB1.trafficFlowFilter ownerType "\"GNODEB\""
par singleMecHost.gNodeB1.trafficFlowFilter fastForwarding true
par singleMecHost.gNodeB1.gtpUser typename "\"simu5g.corenetwork.gtp.GtpUser\""
par singleMecHost.gNodeB1.gtpUser interfaceTableModule "\"singleMecHost.gNodeB1.interfaceTable\""
par singleMecHost.gNodeB1.gtpUser ipOutInterface "\"wlan\""
par singleMecHost.gNodeB1.gtpUser localPort 31
par singleMecHost.gNodeB1.gtpUser tunnelPeerPort 31
par singleMecHost.gNodeB1.gtpUser filter true
par singleMecHost.gNodeB1.gtpUserX2 typename "\"simu5g.corenetwork.gtp.GtpUserX2\""
par singleMecHost.gNodeB1.gtpUserX2 localPort 32
par singleMecHost.gNodeB1.gtpUserX2 tunnelPeerPort 32
par singleMecHost.gNodeB1 typename "\"simu5g.nodes.NR.gNodeB\""
par singleMecHost.gNodeB1 nodeType "\"GNODEB\""
par singleMecHost.gNodeB1 gateway "\"upf\""
par singleMecHost.gNodeB1 masterId 0
par singleMecHost.gNodeB1 macNodeId 1
par singleMecHost.gNodeB1 macCellId 1
par singleMecHost.gNodeB1 txPower 100mw
attr unit mw
par singleMecHost.gNodeB1 nicType "\"NRNicEnb\""
par singleMecHost.gNodeB1 hasIpv4 true
par singleMecHost.gNodeB1 hasIpv6 false
par singleMecHost.gNodeB1 numApps 0
par singleMecHost.gNodeB1 numX2Apps 0
par singleMecHost.gNodeB1 hasUdp true
par singleMecHost.gNodeB1 hasTcp true
par singleMecHost.gNodeB1 hasSctp true
par singleMecHost.gNodeB1 mecHost "\"mecHost\""
par singleMecHost.gNodeB1 StatsCollectorType "\"GNodeBStatsCollector\""
par singleMecHost.gNodeB1 hasRNISupport true
par singleMecHost.gNodeB1 extMeAppsAddress "\"\""
par singleMecHost.gNodeB1 mcc "\"001\""
par singleMecHost.gNodeB1 mnc "\"01\""
par singleMecHost.car[0].interfaceTable typename "\"inet.networklayer.common.InterfaceTable\""
par singleMecHost.car[0].interfaceTable displayAddresses false
par singleMecHost.car[0].mobility typename "\"inet.mobility.single.LinearMobility\""
par singleMecHost.car[0].mobility subjectModule "\"^\""
par singleMecHost.car[0].mobility coordinateSystemModule "\"\""
par singleMecHost.car[0].mobility displayStringTextFormat "\"p: %p\\nv: %v\""
par singleMecHost.car[0].mobility updateDisplayString true
par singleMecHost.car[0].mobility constraintAreaMinX "-inf m"
attr unit m
par singleMecHost.car[0].mobility constraintAreaMinY "-inf m"
attr unit m
par singleMecHost.car[0].mobility constraintAreaMinZ 0m
attr unit m
par singleMecHost.car[0].mobility constraintAreaMaxX "inf m"
attr unit m
par singleMecHost.car[0].mobility constraintAreaMaxY "inf m"
attr unit m
par singleMecHost.car[0].mobility constraintAreaMaxZ 0m
attr unit m
par singleMecHost.car[0].mobility updateInterval 0.05s
attr unit s
par singleMecHost.car[0].mobility faceForward true
par singleMecHost.car[0].mobility initialX 180m
attr unit m
par singleMecHost.car[0].mobility initialY 50m
attr unit m
par singleMecHost.car[0].mobility initialZ 0m
attr unit m
par singleMecHost.car[0].mobility initFromDisplayString false
par singleMecHost.car[0].mobility speed 10mps
attr unit mps
par singleMecHost.car[0].mobility initialMovementHeading 90deg
attr unit deg
par singleMecHost.car[0].mobility initialMovementElevation 0deg
attr unit deg
par singleMecHost.car[0].app[0] typename "\"simu5g.apps.mec.DeviceApp.DeviceApp\""
par singleMecHost.car[0].app[0] UALCMPAddress "\"ualcmp\""
par singleMecHost.car[0].app[0] UALCMPPort 1000
par singleMecHost.car[0].app[0] appProvider "\"\""
par singleMecHost.car[0].app[0] appPackageSource "\"ApplicationDescriptors/PublisherApp.json\""
par singleMecHost.car[0].app[0] localAddress "\"\""
par singleMecHost.car[0].app[0] localPort 4500
par singleMecHost.car[0].app[0] connectAddress "\"\""
par singleMecHost.car[0].app[0] connectPort 1000
par singleMecHost.car[0].app[0] startTime 1s
attr unit s
par singleMecHost.car[0].app[0] stopTime -1s
attr unit s
par singleMecHost.car[0].app[0] timeToLive -1
par singleMecHost.car[0].app[0] dscp -1
par singleMecHost.car[0].app[0] tos -1
par singleMecHost.car[0].app[0] stopOperationExtraTime -1s
attr unit s
par singleMecHost.car[0].app[0] stopOperationTimeout 2s
attr unit s
par singleMecHost.car[0].app[1] typename "\"syntetictracegenerator.apps.CarPublisher.UEPublisherApp\""
par singleMecHost.car[0].app[1] localPort 4000
par singleMecHost.car[0].app[1] deviceAppPort 4500
par singleMecHost.car[0].app[1] deviceAppAddress "\"car[0]\""
par singleMecHost.car[0].app[1] packetSize 10
par singleMecHost.car[0].app[1] tos -1
par singleMecHost.car[0].app[1] period 1s
attr unit s
par singleMecHost.car[0].app[1] startTime 1s
attr unit s
par singleMecHost.car[0].app[1] stopTime 30s
attr unit s
par singleMecHost.car[0].app[1] mecAppName "\"MECPublisherApp\""
par singleMecHost.car[0].app[1] logger true
par singleMecHost.car[0].app[1] interfaceTableModule "\"singleMecHost.car[0].interfaceTable\""
par singleMecHost.car[0].udp typename "\"inet.transportlayer.udp.Udp\""
par singleMecHost.car[0].udp interfaceTableModule "\"singleMecHost.car[0].interfaceTable\""
par singleMecHost.car[0].udp icmpModule "\"^.ipv4.icmp\""
par singleMecHost.car[0].udp icmpv6Module "\"^.ipv6.icmpv6\""
par singleMecHost.car[0].udp crcMode "\"declared\""
attr enum disabled,declared,computed
par singleMecHost.car[0].tcp.conn-29 typename "\"inet.transportlayer.tcp.TcpConnection\""
par singleMecHost.car[0].tcp typename "\"inet.transportlayer.tcp.Tcp\""
par singleMecHost.car[0].tcp crcMode "\"declared\""
attr enum declared,computed
par singleMecHost.car[0].tcp advertisedWindow 65535
par singleMecHost.car[0].tcp delayedAcksEnabled false
par singleMecHost.car[0].tcp nagleEnabled true
par singleMecHost.car[0].tcp limitedTransmitEnabled false
par singleMecHost.car[0].tcp increasedIWEnabled false
par singleMecHost.car[0].tcp sackSupport true
par singleMecHost.car[0].tcp windowScalingSupport false
par singleMecHost.car[0].tcp windowScalingFactor -1
par singleMecHost.car[0].tcp timestampSupport false
par singleMecHost.car[0].tcp mss 536
par singleMecHost.car[0].tcp msl 120s
attr unit s
par singleMecHost.car[0].tcp tcpAlgorithmClass "\"TcpReno\""
attr enum TcpVegas,TcpWestwood,TcpNewReno,TcpReno,TcpTahoe,TcpNoCongestionControl
par singleMecHost.car[0].tcp useDataNotification false
par singleMecHost.car[0].tcp dupthresh 3
par singleMecHost.car[0].tcp initialSsthresh 4294967295
par singleMecHost.car[0].tcp stopOperationExtraTime 0s
attr unit s
par singleMecHost.car[0].tcp stopOperationTimeout 2s
attr unit s
par singleMecHost.car[0].tcp ecnWillingness false
par singleMecHost.car[0].tcp dctcpGamma 0.0625
par singleMecHost.car[0].ipv4.transportIn.channel typename "\"ned.IdealChannel\""
par singleMecHost.car[0].ipv4.up.out[0].channel typename "\"ned.IdealChannel\""
par singleMecHost.car[0].ipv4.lp.out[2].channel typename "\"ned.IdealChannel\""
par singleMecHost.car[0].ipv4.ifIn.channel typename "\"ned.IdealChannel\""
par singleMecHost.car[0].ipv4.configurator typename "\"inet.networklayer.configurator.ipv4.Ipv4NodeConfigurator\""
par singleMecHost.car[0].ipv4.configurator interfaceTableModule "\"singleMecHost.car[0].interfaceTable\""
par singleMecHost.car[0].ipv4.configurator routingTableModule "\"singleMecHost.car[0].ipv4.routingTable\""
par singleMecHost.car[0].ipv4.configurator networkConfiguratorModule "\"configurator\""
par singleMecHost.car[0].ipv4.configurator configureRoutingTable true
par singleMecHost.car[0].ipv4.routingTable typename "\"inet.networklayer.ipv4.Ipv4RoutingTable\""
par singleMecHost.car[0].ipv4.routingTable interfaceTableModule "\"singleMecHost.car[0].interfaceTable\""
par singleMecHost.car[0].ipv4.routingTable routerId "\"auto\""
par singleMecHost.car[0].ipv4.routingTable netmaskRoutes "\"*\""
par singleMecHost.car[0].ipv4.routingTable forwarding false
par singleMecHost.car[0].ipv4.routingTable multicastForwarding false
par singleMecHost.car[0].ipv4.routingTable useAdminDist false
par singleMecHost.car[0].ipv4.routingTable routingFile "\"\""
par singleMecHost.car[0].ipv4.natTable typename "\"inet.networklayer.ipv4.Ipv4NatTable\""
par singleMecHost.car[0].ipv4.natTable networkProtocolModule "\"^.ip\""
par singleMecHost.car[0].ipv4.natTable config "<config/> at content:1"
par singleMecHost.car[0].ipv4.up typename "\"inet.common.MessageDispatcher\""
par singleMecHost.car[0].ipv4.up displayStringTextFormat "\"processed %p pk (%l)\""
par singleMecHost.car[0].ipv4.igmp typename "\"inet.networklayer.ipv4.Igmpv2\""
par singleMecHost.car[0].ipv4.igmp interfaceTableModule "\"singleMecHost.car[0].interfaceTable\""
par singleMecHost.car[0].ipv4.igmp routingTableModule "\"singleMecHost.car[0].ipv4.routingTable\""
par singleMecHost.car[0].ipv4.igmp crcMode "\"declared\""
attr enum declared,computed
par singleMecHost.car[0].ipv4.igmp enabled true
par singleMecHost.car[0].ipv4.igmp robustnessVariable 2
par singleMecHost.car[0].ipv4.igmp queryInterval 125s
attr unit s
par singleMecHost.car[0].ipv4.igmp queryResponseInterval 10s
attr unit s
par singleMecHost.car[0].ipv4.igmp groupMembershipInterval 260s
attr unit s
par singleMecHost.car[0].ipv4.igmp otherQuerierPresentInterval 255s
attr unit s
par singleMecHost.car[0].ipv4.igmp startupQueryInterval 31.25s
attr unit s
par singleMecHost.car[0].ipv4.igmp startupQueryCount 2
par singleMecHost.car[0].ipv4.igmp lastMemberQueryInterval 1s
attr unit s
par singleMecHost.car[0].ipv4.igmp lastMemberQueryCount 2
par singleMecHost.car[0].ipv4.igmp unsolicitedReportInterval 10s
attr unit s
par singleMecHost.car[0].ipv4.icmp typename "\"inet.networklayer.ipv4.Icmp\""
par singleMecHost.car[0].ipv4.icmp interfaceTableModule "\"singleMecHost.car[0].interfaceTable\""
par singleMecHost.car[0].ipv4.icmp routingTableModule "\"singleMecHost.car[0].ipv4.routingTable\""
par singleMecHost.car[0].ipv4.icmp crcMode "\"declared\""
attr enum declared,computed
par singleMecHost.car[0].ipv4.icmp quoteLength 8B
attr unit B
par singleMecHost.car[0].ipv4.mp typename "\"inet.common.MessageDispatcher\""
par singleMecHost.car[0].ipv4.mp displayStringTextFormat "\"processed %p pk (%l)\""
par singleMecHost.car[0].ipv4.ip typename "\"inet.networklayer.ipv4.Ipv4\""
par singleMecHost.car[0].ipv4.ip interfaceTableModule "\"singleMecHost.car[0].interfaceTable\""
par singleMecHost.car[0].ipv4.ip routingTableModule "\"singleMecHost.car[0].ipv4.routingTable\""
par singleMecHost.car[0].ipv4.ip arpModule "\"singleMecHost.car[0].ipv4.arp\""
par singleMecHost.car[0].ipv4.ip icmpModule "\"singleMecHost.car[0].ipv4.icmp\""
par singleMecHost.car[0].ipv4.ip crcMode "\"declared\""
attr enum declared,computed
par singleMecHost.car[0].ipv4.ip timeToLive 32
par singleMecHost.car[0].ipv4.ip multicastTimeToLive 32
par singleMecHost.car[0].ipv4.ip fragmentTimeout 60s
attr unit s
par singleMecHost.car[0].ipv4.ip limitedBroadcast false
par singleMecHost.car[0].ipv4.ip directBroadcastInterfaces "\"\""
par singleMecHost.car[0].ipv4.arp typename "\"inet.networklayer.arp.ipv4.Arp\""
par singleMecHost.car[0].ipv4.arp interfaceTableModule "\"singleMecHost.car[0].interfaceTable\""
par singleMecHost.car[0].ipv4.arp routingTableModule "\"singleMecHost.car[0].ipv4.routingTable\""
par singleMecHost.car[0].ipv4.arp retryTimeout 1s
attr unit s
par singleMecHost.car[0].ipv4.arp retryCount 3
par singleMecHost.car[0].ipv4.arp cacheTimeout 120s
attr unit s
par singleMecHost.car[0].ipv4.arp proxyArpInterfaces "\"*\""
par singleMecHost.car[0].ipv4.lp typename "\"inet.common.MessageDispatcher\""
par singleMecHost.car[0].ipv4.lp displayStringTextFormat "\"processed %p pk (%l)\""
par singleMecHost.car[0].ipv4 typename "\"inet.networklayer.ipv4.Ipv4NetworkLayer\""
par singleMecHost.car[0].ipv4 forwarding false
par singleMecHost.car[0].ipv4 multicastForwarding false
par singleMecHost.car[0].ipv4 interfaceTableModule "\"singleMecHost.car[0].interfaceTable\""
par singleMecHost.car[0].ipv4 displayStringTextFormat "\"%i\""
par singleMecHost.car[0].lo[0].upperLayerIn.channel typename "\"ned.IdealChannel\""
par singleMecHost.car[0].lo[0].lo.upperLayerOut.channel typename "\"ned.IdealChannel\""
par singleMecHost.car[0].lo[0].lo typename "\"inet.linklayer.loopback.Loopback\""
par singleMecHost.car[0].lo[0].lo interfaceTableModule "\"singleMecHost.car[0].interfaceTable\""
par singleMecHost.car[0].lo[0].lo mtu 4470B
attr unit B
par singleMecHost.car[0].lo[0] typename "\"inet.linklayer.loopback.LoopbackInterface\""
par singleMecHost.car[0].lo[0] displayStringTextFormat "\"%a (%i)\\n%m\""
[...]
par singleMecHost.mecHost.gtpEndpoint.pppIf.phys$i.channel typename "\"ned.IdealChannel\""
par singleMecHost.mecHost.gtpEndpoint.pppIf.ppp.phys$o.channel typename "\"ned.IdealChannel\""
par singleMecHost.mecHost.gtpEndpoint.pppIf.ppp.upperLayerOut.channel typename "\"ned.IdealChannel\""
par singleMecHost.mecHost.gtpEndpoint.pppIf.ppp.queue typename "\"inet.queueing.queue.DropTailQueue\""
par singleMecHost.mecHost.gtpEndpoint.pppIf.ppp.queue displayStringTextFormat "\"contains %p pk (%l) pushed %u\\npulled %o removed %r dropped %d\""
par singleMecHost.mecHost.gtpEndpoint.pppIf.ppp.queue packetCapacity 10000
par singleMecHost.mecHost.gtpEndpoint.pppIf.ppp.queue dataCapacity -1b
attr unit b
par singleMecHost.mecHost.gtpEndpoint.pppIf.ppp.queue dropperClass "\"inet::queueing::PacketAtCollectionEndDropper\""
par singleMecHost.mecHost.gtpEndpoint.pppIf.ppp.queue comparatorClass "\"\""
par singleMecHost.mecHost.gtpEndpoint.pppIf.ppp.queue bufferModule "\"\""
par singleMecHost.mecHost.gtpEndpoint.pppIf.ppp typename "\"inet.linklayer.ppp.Ppp\""
par singleMecHost.mecHost.gtpEndpoint.pppIf.ppp interfaceTableModule "\"singleMecHost.mecHost.gtpEndpoint.interfaceTable\""
par singleMecHost.mecHost.gtpEndpoint.pppIf.ppp displayStringTextFormat "\"rate: %b\\nsent: %s, rcvd: %r\\nqueue: %q, drop: %d\""
par singleMecHost.mecHost.gtpEndpoint.pppIf.ppp sendRawBytes false
par singleMecHost.mecHost.gtpEndpoint.pppIf.ppp mtu 4470B
attr unit B
par singleMecHost.mecHost.gtpEndpoint.pppIf.ppp stopOperationExtraTime -1s
attr unit s
par singleMecHost.mecHost.gtpEndpoint.pppIf.ppp stopOperationTimeout 2s
attr unit s
par singleMecHost.mecHost.gtpEndpoint.pppIf typename "\"inet.linklayer.ppp.PppInterface\""
par singleMecHost.mecHost.gtpEndpoint.pppIf displayStringTextFormat "\"%a (%i)\\n%m\""
par singleMecHost.mecHost.gtpEndpoint.pppIf recordPcap false
par singleMecHost.mecHost.gtpEndpoint.pppIf numPcapRecorders 0
par singleMecHost.mecHost.gtpEndpoint.pppIf interfaceTableModule "\"singleMecHost.mecHost.gtpEndpoint.interfaceTable\""
par singleMecHost.mecHost.gtpEndpoint.udp typename "\"inet.transportlayer.udp.Udp\""
par singleMecHost.mecHost.gtpEndpoint.udp interfaceTableModule "\"singleMecHost.mecHost.gtpEndpoint.interfaceTable\""
par singleMecHost.mecHost.gtpEndpoint.udp icmpModule "\"^.ipv4.icmp\""
par singleMecHost.mecHost.gtpEndpoint.udp icmpv6Module "\"^.ipv6.icmpv6\""
par singleMecHost.mecHost.gtpEndpoint.udp crcMode "\"declared\""
attr enum disabled,declared,computed
par singleMecHost.mecHost.gtpEndpoint.trafficFlowFilter typename "\"simu5g.corenetwork.trafficFlowFilter.TrafficFlowFilter\""
par singleMecHost.mecHost.gtpEndpoint.trafficFlowFilter ownerType "\"GTPENDPOINT\""
par singleMecHost.mecHost.gtpEndpoint.trafficFlowFilter fastForwarding true
par singleMecHost.mecHost.gtpEndpoint.gtp_user typename "\"simu5g.corenetwork.gtp.GtpUser\""
par singleMecHost.mecHost.gtpEndpoint.gtp_user interfaceTableModule "\"singleMecHost.mecHost.gtpEndpoint.interfaceTable\""
par singleMecHost.mecHost.gtpEndpoint.gtp_user ipOutInterface "\"\""
par singleMecHost.mecHost.gtpEndpoint.gtp_user localPort 31
par singleMecHost.mecHost.gtpEndpoint.gtp_user tunnelPeerPort 31
par singleMecHost.mecHost.gtpEndpoint.gtp_user filter true
par singleMecHost.mecHost.gtpEndpoint.tn typename "\"inet.common.MessageDispatcher\""
par singleMecHost.mecHost.gtpEndpoint.tn displayStringTextFormat "\"processed %p pk (%l)\""
par singleMecHost.mecHost.gtpEndpoint.at typename "\"inet.common.MessageDispatcher\""
par singleMecHost.mecHost.gtpEndpoint.at displayStringTextFormat "\"processed %p pk (%l)\""
par singleMecHost.mecHost.gtpEndpoint typename "\"simu5g.nodes.mec.GtpEndpoint.GtpEndpoint\""
par singleMecHost.mecHost.gtpEndpoint hasStatus false
par singleMecHost.mecHost.gtpEndpoint osgModel "\"\""
par singleMecHost.mecHost.gtpEndpoint osgModelColor "\"\""
par singleMecHost.mecHost.gtpEndpoint canvasImage "\"\""
par singleMecHost.mecHost.gtpEndpoint canvasImageColor "\"\""
par singleMecHost.mecHost.gtpEndpoint recordPcap false
par singleMecHost.mecHost.gtpEndpoint numPcapRecorders 0
par singleMecHost.mecHost.gtpEndpoint numLoInterfaces 1
par singleMecHost.mecHost.gtpEndpoint numWlanInterfaces 0
par singleMecHost.mecHost.gtpEndpoint numEthInterfaces 0
par singleMecHost.mecHost.gtpEndpoint numPppInterfaces 0
par singleMecHost.mecHost.gtpEndpoint numTunInterfaces 0
par singleMecHost.mecHost.gtpEndpoint numVirtInterfaces 0
par singleMecHost.mecHost.gtpEndpoint hasIpv4 true
par singleMecHost.mecHost.gtpEndpoint hasIpv6 false
par singleMecHost.mecHost.gtpEndpoint hasGn false
par singleMecHost.mecHost.gtpEndpoint forwarding true
par singleMecHost.mecHost.gtpEndpoint multicastForwarding false
par singleMecHost.mecHost.gtpEndpoint nodeType "\"GTPENDPOINT\""
par singleMecHost.mecHost.MECPublisherApp[0] typename "\"syntetictracegenerator.apps.CarPublisher.MECPublisherApp\""
par singleMecHost.mecHost.MECPublisherApp[0] packetSize 10
par singleMecHost.mecHost.MECPublisherApp[0] interfaceTableModule "\"\""
par singleMecHost.mecHost.MECPublisherApp[0] mecAppId 128
par singleMecHost.mecHost.MECPublisherApp[0] localUePort 4001
par singleMecHost.mecHost.MECPublisherApp[0] mp1Address "\"192.168.5.2\""
par singleMecHost.mecHost.MECPublisherApp[0] mp1Port 10021
par singleMecHost.mecHost.MECPublisherApp[0] requiredRam 1e+07B
attr unit B
par singleMecHost.mecHost.MECPublisherApp[0] requiredDisk 1e+07B
attr unit B
par singleMecHost.mecHost.MECPublisherApp[0] requiredCpu 1500
par singleMecHost.mecHost.MECPublisherApp[0] timeToLive -1
par singleMecHost.mecHost.MECPublisherApp[0] dscp -1
par singleMecHost.mecHost.MECPublisherApp[0] tos -1
par singleMecHost.mecHost.MECPublisherApp[0] logger true
par singleMecHost.mecHost.MECPublisherApp[1] typename "\"syntetictracegenerator.apps.CarPublisher.MECPublisherApp\""
par singleMecHost.mecHost.MECPublisherApp[1] packetSize 10
par singleMecHost.mecHost.MECPublisherApp[1] interfaceTableModule "\"\""
par singleMecHost.mecHost.MECPublisherApp[1] mecAppId 181
par singleMecHost.mecHost.MECPublisherApp[1] localUePort 4002
par singleMecHost.mecHost.MECPublisherApp[1] mp1Address "\"192.168.5.2\""
par singleMecHost.mecHost.MECPublisherApp[1] mp1Port 10021
par singleMecHost.mecHost.MECPublisherApp[1] requiredRam 1e+07B
attr unit B
par singleMecHost.mecHost.MECPublisherApp[1] requiredDisk 1e+07B
attr unit B
par singleMecHost.mecHost.MECPublisherApp[1] requiredCpu 1500
par singleMecHost.mecHost.MECPublisherApp[1] timeToLive -1
par singleMecHost.mecHost.MECPublisherApp[1] dscp -1
par singleMecHost.mecHost.MECPublisherApp[1] tos -1
par singleMecHost.mecHost.MECPublisherApp[1] logger true
par singleMecHost.mecHost.MECPublisherApp[2] typename "\"syntetictracegenerator.apps.CarPublisher.MECPublisherApp\""
par singleMecHost.mecHost.MECPublisherApp[2] packetSize 10
par singleMecHost.mecHost.MECPublisherApp[2] interfaceTableModule "\"\""
par singleMecHost.mecHost.MECPublisherApp[2] mecAppId 234
par singleMecHost.mecHost.MECPublisherApp[2] localUePort 4003
par singleMecHost.mecHost.MECPublisherApp[2] mp1Address "\"192.168.5.2\""
par singleMecHost.mecHost.MECPublisherApp[2] mp1Port 10021
par singleMecHost.mecHost.MECPublisherApp[2] requiredRam 1e+07B
attr unit B
par singleMecHost.mecHost.MECPublisherApp[2] requiredDisk 1e+07B
attr unit B
par singleMecHost.mecHost.MECPublisherApp[2] requiredCpu 1500
par singleMecHost.mecHost.MECPublisherApp[2] timeToLive -1
par singleMecHost.mecHost.MECPublisherApp[2] dscp -1
par singleMecHost.mecHost.MECPublisherApp[2] tos -1
par singleMecHost.mecHost.MECPublisherApp[2] logger true
par singleMecHost.mecHost typename "\"simu5g.nodes.mec.MECHost\""
par singleMecHost.mecHost nodeType "\"MECHost\""
par singleMecHost.mecHost gateway "\"upf\""
par singleMecHost.mecHost maxMECApps 100
par singleMecHost.mecHost maxRam 3.2e+10B
attr unit B
par singleMecHost.mecHost maxDisk 1e+14B
attr unit B
par singleMecHost.mecHost maxCpuSpeed 400000
par singleMecHost.mecHost numBGMecApp 0
par singleMecHost.mecHost eNBList "\"gNodeB1\""
par singleMecHost.mecOrchestrator typename "\"simu5g.nodes.mec.MECOrchestrator.MecOrchestrator\""
par singleMecHost.mecOrchestrator mecHostList "\"mecHost\""
par singleMecHost.mecOrchestrator mecApplicationPackageList "\"\""
par singleMecHost.mecOrchestrator onboardingTime 0.05s
attr unit s
par singleMecHost.mecOrchestrator instantiationTime 0.05s
attr unit s
par singleMecHost.mecOrchestrator terminationTime 0.05s
attr unit s
par singleMecHost.ualcmp.interfaceTable typename "\"inet.networklayer.common.InterfaceTable\""
par singleMecHost.ualcmp.interfaceTable displayAddresses false
par singleMecHost.ualcmp.pppIf.upperLayerIn.channel typename "\"ned.IdealChannel\""
par singleMecHost.ualcmp.pppIf.phys$i.channel typename "\"ned.IdealChannel\""
par singleMecHost.ualcmp.pppIf.ppp.phys$o.channel typename "\"ned.IdealChannel\""
par singleMecHost.ualcmp.pppIf.ppp.upperLayerOut.channel typename "\"ned.IdealChannel\""
par singleMecHost.ualcmp.pppIf.ppp.queue typename "\"inet.queueing.queue.DropTailQueue\""
par singleMecHost.ualcmp.pppIf.ppp.queue displayStringTextFormat "\"contains %p pk (%l) pushed %u\\npulled %o removed %r dropped %d\""
par singleMecHost.ualcmp.pppIf.ppp.queue packetCapacity 10000
par singleMecHost.ualcmp.pppIf.ppp.queue dataCapacity -1b
attr unit b
par singleMecHost.ualcmp.pppIf.ppp.queue dropperClass "\"inet::queueing::PacketAtCollectionEndDropper\""
par singleMecHost.ualcmp.pppIf.ppp.queue comparatorClass "\"\""
par singleMecHost.ualcmp.pppIf.ppp.queue bufferModule "\"\""
par singleMecHost.ualcmp.pppIf.ppp typename "\"inet.linklayer.ppp.Ppp\""
par singleMecHost.ualcmp.pppIf.ppp interfaceTableModule "\"singleMecHost.ualcmp.interfaceTable\""
par singleMecHost.ualcmp.pppIf.ppp displayStringTextFormat "\"rate: %b\\nsent: %s, rcvd: %r\\nqueue: %q, drop: %d\""
par singleMecHost.ualcmp.pppIf.ppp sendRawBytes false
par singleMecHost.ualcmp.pppIf.ppp mtu 4470B
attr unit B
par singleMecHost.ualcmp.pppIf.ppp stopOperationExtraTime -1s
attr unit s
par singleMecHost.ualcmp.pppIf.ppp stopOperationTimeout 2s
attr unit s
par singleMecHost.ualcmp.pppIf typename "\"inet.linklayer.ppp.PppInterface\""
par singleMecHost.ualcmp.pppIf displayStringTextFormat "\"%a (%i)\\n%m\""
par singleMecHost.ualcmp.pppIf recordPcap false
par singleMecHost.ualcmp.pppIf numPcapRecorders 0
par singleMecHost.ualcmp.pppIf interfaceTableModule "\"singleMecHost.ualcmp.interfaceTable\""
par singleMecHost.ualcmp.ipv4.transportIn.channel typename "\"ned.IdealChannel\""
par singleMecHost.ualcmp.ipv4.up.out[0].channel typename "\"ned.IdealChannel\""
par singleMecHost.ualcmp.ipv4.lp.out[2].channel typename "\"ned.IdealChannel\""
par singleMecHost.ualcmp.ipv4.ifIn.channel typename "\"ned.IdealChannel\""
par singleMecHost.ualcmp.ipv4.configurator typename "\"inet.networklayer.configurator.ipv4.Ipv4NodeConfigurator\""
par singleMecHost.ualcmp.ipv4.configurator interfaceTableModule "\"singleMecHost.ualcmp.interfaceTable\""
par singleMecHost.ualcmp.ipv4.configurator routingTableModule "\"singleMecHost.ualcmp.ipv4.routingTable\""
par singleMecHost.ualcmp.ipv4.configurator networkConfiguratorModule "\"configurator\""
par singleMecHost.ualcmp.ipv4.configurator configureRoutingTable true
par singleMecHost.ualcmp.ipv4.routingTable typename "\"inet.networklayer.ipv4.Ipv4RoutingTable\""
par singleMecHost.ualcmp.ipv4.routingTable interfaceTableModule "\"singleMecHost.ualcmp.interfaceTable\""
par singleMecHost.ualcmp.ipv4.routingTable routerId "\"auto\""
par singleMecHost.ualcmp.ipv4.routingTable netmaskRoutes "\"*\""
par singleMecHost.ualcmp.ipv4.routingTable forwarding false
par singleMecHost.ualcmp.ipv4.routingTable multicastForwarding false
par singleMecHost.ualcmp.ipv4.routingTable useAdminDist false
par singleMecHost.ualcmp.ipv4.routingTable routingFile "\"\""
par singleMecHost.ualcmp.ipv4.natTable typename "\"inet.networklayer.ipv4.Ipv4NatTable\""
par singleMecHost.ualcmp.ipv4.natTable networkProtocolModule "\"^.ip\""
par singleMecHost.ualcmp.ipv4.natTable config "<config/> at content:1"
par singleMecHost.ualcmp.ipv4.up typename "\"inet.common.MessageDispatcher\""
par singleMecHost.ualcmp.ipv4.up displayStringTextFormat "\"processed %p pk (%l)\""
par singleMecHost.ualcmp.ipv4.igmp typename "\"inet.networklayer.ipv4.Igmpv2\""
par singleMecHost.ualcmp.ipv4.igmp interfaceTableModule "\"singleMecHost.ualcmp.interfaceTable\""
par singleMecHost.ualcmp.ipv4.igmp routingTableModule "\"singleMecHost.ualcmp.ipv4.routingTable\""
par singleMecHost.ualcmp.ipv4.igmp crcMode "\"declared\""
attr enum declared,computed
par singleMecHost.ualcmp.ipv4.igmp enabled true
par singleMecHost.ualcmp.ipv4.igmp robustnessVariable 2
par singleMecHost.ualcmp.ipv4.igmp queryInterval 125s
attr unit s
par singleMecHost.ualcmp.ipv4.igmp queryResponseInterval 10s
attr unit s
par singleMecHost.ualcmp.ipv4.igmp groupMembershipInterval 260s
attr unit s
par singleMecHost.ualcmp.ipv4.igmp otherQuerierPresentInterval 255s
attr unit s
par singleMecHost.ualcmp.ipv4.igmp startupQueryInterval 31.25s
attr unit s
par singleMecHost.ualcmp.ipv4.igmp startupQueryCount 2
par singleMecHost.ualcmp.ipv4.igmp lastMemberQueryInterval 1s
attr unit s
par singleMecHost.ualcmp.ipv4.igmp lastMemberQueryCount 2
par singleMecHost.ualcmp.ipv4.igmp unsolicitedReportInterval 10s
attr unit s
par singleMecHost.ualcmp.ipv4.icmp typename "\"inet.networklayer.ipv4.Icmp\""
par singleMecHost.ualcmp.ipv4.icmp interfaceTableModule "\"singleMecHost.ualcmp.interfaceTable\""
par singleMecHost.ualcmp.ipv4.icmp routingTableModule "\"singleMecHost.ualcmp.ipv4.routingTable\""
par singleMecHost.ualcmp.ipv4.icmp crcMode "\"declared\""
attr enum declared,computed
par singleMecHost.ualcmp.ipv4.icmp quoteLength 8B
attr unit B
par singleMecHost.ualcmp.ipv4.mp typename "\"inet.common.MessageDispatcher\""
par singleMecHost.ualcmp.ipv4.mp displayStringTextFormat "\"processed %p pk (%l)\""
par singleMecHost.ualcmp.ipv4.ip typename "\"inet.networklayer.ipv4.Ipv4\""
par singleMecHost.ualcmp.ipv4.ip interfaceTableModule "\"singleMecHost.ualcmp.interfaceTable\""
par singleMecHost.ualcmp.ipv4.ip routingTableModule "\"singleMecHost.ualcmp.ipv4.routingTable\""
par singleMecHost.ualcmp.ipv4.ip arpModule "\"singleMecHost.ualcmp.ipv4.arp\""
par singleMecHost.ualcmp.ipv4.ip icmpModule "\"singleMecHost.ualcmp.ipv4.icmp\""
par singleMecHost.ualcmp.ipv4.ip crcMode "\"declared\""
attr enum declared,computed
par singleMecHost.ualcmp.ipv4.ip timeToLive 32
par singleMecHost.ualcmp.ipv4.ip multicastTimeToLive 32
par singleMecHost.ualcmp.ipv4.ip fragmentTimeout 60s
attr unit s
par singleMecHost.ualcmp.ipv4.ip limitedBroadcast false
par singleMecHost.ualcmp.ipv4.ip directBroadcastInterfaces "\"\""
par singleMecHost.ualcmp.ipv4.arp typename "\"inet.networklayer.arp.ipv4.Arp\""
par singleMecHost.ualcmp.ipv4.arp interfaceTableModule "\"singleMecHost.ualcmp.interfaceTable\""
par singleMecHost.ualcmp.ipv4.arp routingTableModule "\"singleMecHost.ualcmp.ipv4.routingTable\""
par singleMecHost.ualcmp.ipv4.arp retryTimeout 1s
attr unit s
par singleMecHost.ualcmp.ipv4.arp retryCount 3
par singleMecHost.ualcmp.ipv4.arp cacheTimeout 120s
attr unit s
par singleMecHost.ualcmp.ipv4.arp proxyArpInterfaces "\"*\""
par singleMecHost.ualcmp.ipv4.lp typename "\"inet.common.MessageDispatcher\""
par singleMecHost.ualcmp.ipv4.lp displayStringTextFormat "\"processed %p pk (%l)\""
par singleMecHost.ualcmp.ipv4 typename "\"inet.networklayer.ipv4.Ipv4NetworkLayer\""
par singleMecHost.ualcmp.ipv4 forwarding false
par singleMecHost.ualcmp.ipv4 multicastForwarding false
par singleMecHost.ualcmp.ipv4 interfaceTableModule "\"singleMecHost.ualcmp.interfaceTable\""
par singleMecHost.ualcmp.ipv4 displayStringTextFormat "\"%i\""
par singleMecHost.ualcmp.ualcmpApp.thread_32 typename "\"simu5g.nodes.mec.MECPlatform.MECServices.MECServiceBase.SocketManager\""
par singleMecHost.ualcmp.ualcmpApp.thread_33 typename "\"simu5g.nodes.mec.MECPlatform.MECServices.MECServiceBase.SocketManager\""
par singleMecHost.ualcmp.ualcmpApp.thread_34 typename "\"simu5g.nodes.mec.MECPlatform.MECServices.MECServiceBase.SocketManager\""
par singleMecHost.ualcmp.ualcmpApp typename "\"simu5g.nodes.mec.UALCMP.UALCMPApp\""
par singleMecHost.ualcmp.ualcmpApp serviceName "\"UALCMP\""
par singleMecHost.ualcmp.ualcmpApp requestQueueSize 0
par singleMecHost.ualcmp.ualcmpApp subscriptionQueueSize 0
par singleMecHost.ualcmp.ualcmpApp localAddress "\"\""
par singleMecHost.ualcmp.ualcmpApp localPort 1000
par singleMecHost.ualcmp.ualcmpApp dataTransferMode "\"bytestream\""
attr enum bytecount,object,bytestream
par singleMecHost.ualcmp.ualcmpApp requestServiceTime 5e-06s
attr unit s
par singleMecHost.ualcmp.ualcmpApp subscriptionServiceTime 1e-05s
attr unit s
par singleMecHost.ualcmp.ualcmpApp serverThreadClass "\"simu5g.nodes.mec.MECPlatform.MECServices.MECServiceBase.SocketManager\""
par singleMecHost.ualcmp.ualcmpApp destPort 4000
par singleMecHost.ualcmp.ualcmpApp tos -1
par singleMecHost.ualcmp.udp typename "\"inet.transportlayer.udp.Udp\""
par singleMecHost.ualcmp.udp interfaceTableModule "\"singleMecHost.ualcmp.interfaceTable\""
par singleMecHost.ualcmp.udp icmpModule "\"^.ipv4.icmp\""
par singleMecHost.ualcmp.udp icmpv6Module "\"^.ipv6.icmpv6\""
par singleMecHost.ualcmp.udp crcMode "\"declared\""
attr enum disabled,declared,computed
par singleMecHost.ualcmp.tcp.conn-16 typename "\"inet.transportlayer.tcp.TcpConnection\""
par singleMecHost.ualcmp.tcp.conn-32 typename "\"inet.transportlayer.tcp.TcpConnection\""
par singleMecHost.ualcmp.tcp.conn-33 typename "\"inet.transportlayer.tcp.TcpConnection\""
par singleMecHost.ualcmp.tcp.conn-34 typename "\"inet.transportlayer.tcp.TcpConnection\""
par singleMecHost.ualcmp.tcp typename "\"inet.transportlayer.tcp.Tcp\""
par singleMecHost.ualcmp.tcp crcMode "\"declared\""
attr enum declared,computed
par singleMecHost.ualcmp.tcp advertisedWindow 65535
par singleMecHost.ualcmp.tcp delayedAcksEnabled false
par singleMecHost.ualcmp.tcp nagleEnabled true
par singleMecHost.ualcmp.tcp limitedTransmitEnabled false
par singleMecHost.ualcmp.tcp increasedIWEnabled false
par singleMecHost.ualcmp.tcp sackSupport true
par singleMecHost.ualcmp.tcp windowScalingSupport false
par singleMecHost.ualcmp.tcp windowScalingFactor -1
par singleMecHost.ualcmp.tcp timestampSupport false
par singleMecHost.ualcmp.tcp mss 536
par singleMecHost.ualcmp.tcp msl 120s
attr unit s
par singleMecHost.ualcmp.tcp tcpAlgorithmClass "\"TcpReno\""
attr enum TcpVegas,TcpWestwood,TcpNewReno,TcpReno,TcpTahoe,TcpNoCongestionControl
par singleMecHost.ualcmp.tcp useDataNotification false
par singleMecHost.ualcmp.tcp dupthresh 3
par singleMecHost.ualcmp.tcp initialSsthresh 4294967295
par singleMecHost.ualcmp.tcp stopOperationExtraTime 0s
attr unit s
par singleMecHost.ualcmp.tcp stopOperationTimeout 2s
attr unit s
par singleMecHost.ualcmp.tcp ecnWillingness false
par singleMecHost.ualcmp.tcp dctcpGamma 0.0625
par singleMecHost.ualcmp.at typename "\"inet.common.MessageDispatcher\""
par singleMecHost.ualcmp.at displayStringTextFormat "\"processed %p pk (%l)\""
par singleMecHost.ualcmp.tn typename "\"inet.common.MessageDispatcher\""
par singleMecHost.ualcmp.tn displayStringTextFormat "\"processed %p pk (%l)\""
par singleMecHost.ualcmp.nl typename "\"inet.common.MessageDispatcher\""
par singleMecHost.ualcmp.nl displayStringTextFormat "\"processed %p pk (%l)\""
par singleMecHost.ualcmp typename "\"simu5g.nodes.mec.UALCMP.UALCMP\""
par singleMecHost.ualcmp nodeType "\"MECOrchestrator\""
par singleMecHost.ualcmp gateway "\"upf\""
par singleMecHost.ualcmp hasIpv4 true
par singleMecHost.ualcmp hasIpv6 false
par singleMecHost.ualcmp numExtEthInterfaces 0
par singleMecHost typename "\"simu5g.simulations.NR.mec.singleMecHost.singleMecHost\""
par singleMecHost numCars 3
par singleMecHost playgroundSizeX 1100m
attr unit m
par singleMecHost playgroundSizeY 800m
attr unit m
par singleMecHost playgroundSizeZ 50m
attr unit m

